/*---------------------------------------------------------------------------*\
| =========                 |                                                 |
| \\      /  F ield         | OpenFOAM: The Open Source CFD Toolbox           |
|  \\    /   O peration     | Version:  v2006                                 |
|   \\  /    A nd           | Website:  www.openfoam.com                      |
|    \\/     M anipulation  |                                                 |
\*---------------------------------------------------------------------------*/
Build  : _b45f8f6f58-20200629 OPENFOAM=2006
Arch   : "LSB;label=32;scalar=64"
Exec   : 00burgers
Date   : Apr 13 2021
Time   : 12:12:28
Host   : zeus
PID    : 249471
I/O    : uncollated
Case   : /home/fromor/OpenFOAM/OpenFOAM-v2006/applications/utilities/ITHACA-FV/tutorials/CFD/00burgers
nProcs : 1
trapFpe: Floating point exception trapping enabled (FOAM_SIGFPE).
fileModificationChecking : Monitoring run-time modified files using timeStampMaster (fileModificationSkew 5, maxFileModificationPolls 20)
allowSystemOperations : Allowing user-supplied system call operations

// * * * * * * * * * * * * * * * * * * * * * * * * * * * * * * * * * * * * * //
Reading field U

Create time

Reading field p

Create mesh for time = 0


SIMPLE: no convergence criteria found. Calculations will run for 2 steps.

Reading field U

Reading transportProperties

Reading viscosity nu

Reading/calculating face flux field phi

Offline data already exist, reading existing data
POD data already exist, reading existing modes
 # DEBUG burgers.C, line 85 # 
 # DEBUG 00burgers.C, line 52 # 
 # DEBUG 00burgers.C, line 835 # 
 #################### DEBUG ~/OpenFOAM/OpenFOAM-v2006/applications/utilities/ITHACA-FV/src/ITHACA_FOMPROBLEMS/burgers/burgers.C, line 101 #################### viscosity: nu [0 2 -1 0 0 0 0] 0.0001

Calculating vector transport

Courant Number mean: 0.0036459 max: 0.035803
deltaT = 0.001
Time = 0.001
 size 1
DILUPBiCGStab:  Solving for Ux, Initial residual = 0.000179913, Final residual = 2.29462e-10, No Iterations 1
DILUPBiCGStab:  Solving for Uy, Initial residual = 0.000179913, Final residual = 2.29462e-10, No Iterations 1
Elapsed = 861 mus
Time = 0.002
 size 2
DILUPBiCGStab:  Solving for Ux, Initial residual = 0.000144198, Final residual = 1.48237e-10, No Iterations 1
DILUPBiCGStab:  Solving for Uy, Initial residual = 0.000144198, Final residual = 1.48237e-10, No Iterations 1
Elapsed = 738 mus
Time = 0.003
 size 3
DILUPBiCGStab:  Solving for Ux, Initial residual = 0.000144189, Final residual = 1.48219e-10, No Iterations 1
DILUPBiCGStab:  Solving for Uy, Initial residual = 0.000144189, Final residual = 1.48219e-10, No Iterations 1
Elapsed = 761 mus
Time = 0.004
 size 4
DILUPBiCGStab:  Solving for Ux, Initial residual = 0.00014418, Final residual = 1.48201e-10, No Iterations 1
DILUPBiCGStab:  Solving for Uy, Initial residual = 0.00014418, Final residual = 1.48201e-10, No Iterations 1
Elapsed = 732 mus
Time = 0.005
 size 5
DILUPBiCGStab:  Solving for Ux, Initial residual = 0.000144171, Final residual = 1.48181e-10, No Iterations 1
DILUPBiCGStab:  Solving for Uy, Initial residual = 0.000144171, Final residual = 1.48181e-10, No Iterations 1
Elapsed = 800 mus
Time = 0.006
 size 6
DILUPBiCGStab:  Solving for Ux, Initial residual = 0.000144162, Final residual = 1.48161e-10, No Iterations 1
DILUPBiCGStab:  Solving for Uy, Initial residual = 0.000144162, Final residual = 1.48161e-10, No Iterations 1
Elapsed = 919 mus
Time = 0.007
 size 7
DILUPBiCGStab:  Solving for Ux, Initial residual = 0.000144152, Final residual = 1.48146e-10, No Iterations 1
DILUPBiCGStab:  Solving for Uy, Initial residual = 0.000144152, Final residual = 1.48146e-10, No Iterations 1
Elapsed = 1015 mus
Time = 0.008
 size 8
DILUPBiCGStab:  Solving for Ux, Initial residual = 0.000144143, Final residual = 1.48133e-10, No Iterations 1
DILUPBiCGStab:  Solving for Uy, Initial residual = 0.000144143, Final residual = 1.48133e-10, No Iterations 1
Elapsed = 1055 mus
Time = 0.009
 size 9
DILUPBiCGStab:  Solving for Ux, Initial residual = 0.000144135, Final residual = 1.4812e-10, No Iterations 1
DILUPBiCGStab:  Solving for Uy, Initial residual = 0.000144135, Final residual = 1.4812e-10, No Iterations 1
Elapsed = 1069 mus
Time = 0.01
 size 10
DILUPBiCGStab:  Solving for Ux, Initial residual = 0.000144128, Final residual = 1.48106e-10, No Iterations 1
DILUPBiCGStab:  Solving for Uy, Initial residual = 0.000144128, Final residual = 1.48106e-10, No Iterations 1
Elapsed = 1068 mus
 # DEBUG burgers.C, line 196 # 10 11
Time = 0.011
 size 11
DILUPBiCGStab:  Solving for Ux, Initial residual = 0.000144121, Final residual = 1.48091e-10, No Iterations 1
DILUPBiCGStab:  Solving for Uy, Initial residual = 0.000144121, Final residual = 1.48091e-10, No Iterations 1
Elapsed = 1135 mus
Time = 0.012
 size 12
DILUPBiCGStab:  Solving for Ux, Initial residual = 0.000144113, Final residual = 1.48076e-10, No Iterations 1
DILUPBiCGStab:  Solving for Uy, Initial residual = 0.000144113, Final residual = 1.48076e-10, No Iterations 1
Elapsed = 1090 mus
Time = 0.013
 size 13
DILUPBiCGStab:  Solving for Ux, Initial residual = 0.000144105, Final residual = 1.4806e-10, No Iterations 1
DILUPBiCGStab:  Solving for Uy, Initial residual = 0.000144105, Final residual = 1.4806e-10, No Iterations 1
Elapsed = 1095 mus
Time = 0.014
 size 14
DILUPBiCGStab:  Solving for Ux, Initial residual = 0.000144097, Final residual = 1.48043e-10, No Iterations 1
DILUPBiCGStab:  Solving for Uy, Initial residual = 0.000144097, Final residual = 1.48043e-10, No Iterations 1
Elapsed = 993 mus
Time = 0.015
 size 15
DILUPBiCGStab:  Solving for Ux, Initial residual = 0.000144088, Final residual = 1.48026e-10, No Iterations 1
DILUPBiCGStab:  Solving for Uy, Initial residual = 0.000144088, Final residual = 1.48026e-10, No Iterations 1
Elapsed = 1074 mus
Time = 0.016
 size 16
DILUPBiCGStab:  Solving for Ux, Initial residual = 0.000144079, Final residual = 1.48012e-10, No Iterations 1
DILUPBiCGStab:  Solving for Uy, Initial residual = 0.000144079, Final residual = 1.48012e-10, No Iterations 1
Elapsed = 995 mus
Time = 0.017
 size 17
DILUPBiCGStab:  Solving for Ux, Initial residual = 0.00014407, Final residual = 1.47996e-10, No Iterations 1
DILUPBiCGStab:  Solving for Uy, Initial residual = 0.00014407, Final residual = 1.47996e-10, No Iterations 1
Elapsed = 1069 mus
Time = 0.018
 size 18
DILUPBiCGStab:  Solving for Ux, Initial residual = 0.000144061, Final residual = 1.4798e-10, No Iterations 1
DILUPBiCGStab:  Solving for Uy, Initial residual = 0.000144061, Final residual = 1.4798e-10, No Iterations 1
Elapsed = 1008 mus
Time = 0.019
 size 19
DILUPBiCGStab:  Solving for Ux, Initial residual = 0.000144051, Final residual = 1.47966e-10, No Iterations 1
DILUPBiCGStab:  Solving for Uy, Initial residual = 0.000144051, Final residual = 1.47966e-10, No Iterations 1
Elapsed = 1047 mus
Time = 0.02
 size 20
DILUPBiCGStab:  Solving for Ux, Initial residual = 0.000144042, Final residual = 1.47952e-10, No Iterations 1
DILUPBiCGStab:  Solving for Uy, Initial residual = 0.000144042, Final residual = 1.47952e-10, No Iterations 1
Elapsed = 1011 mus
 # DEBUG burgers.C, line 196 # 10 21
Time = 0.021
 size 21
DILUPBiCGStab:  Solving for Ux, Initial residual = 0.000144035, Final residual = 1.47937e-10, No Iterations 1
DILUPBiCGStab:  Solving for Uy, Initial residual = 0.000144035, Final residual = 1.47937e-10, No Iterations 1
Elapsed = 1108 mus
Time = 0.022
 size 22
DILUPBiCGStab:  Solving for Ux, Initial residual = 0.000144028, Final residual = 1.47922e-10, No Iterations 1
DILUPBiCGStab:  Solving for Uy, Initial residual = 0.000144028, Final residual = 1.47922e-10, No Iterations 1
Elapsed = 1027 mus
Time = 0.023
 size 23
DILUPBiCGStab:  Solving for Ux, Initial residual = 0.000144021, Final residual = 1.47907e-10, No Iterations 1
DILUPBiCGStab:  Solving for Uy, Initial residual = 0.000144021, Final residual = 1.47907e-10, No Iterations 1
Elapsed = 1057 mus
Time = 0.024
 size 24
DILUPBiCGStab:  Solving for Ux, Initial residual = 0.000144013, Final residual = 1.47892e-10, No Iterations 1
DILUPBiCGStab:  Solving for Uy, Initial residual = 0.000144013, Final residual = 1.47892e-10, No Iterations 1
Elapsed = 995 mus
Time = 0.025
 size 25
DILUPBiCGStab:  Solving for Ux, Initial residual = 0.000144006, Final residual = 1.47877e-10, No Iterations 1
DILUPBiCGStab:  Solving for Uy, Initial residual = 0.000144006, Final residual = 1.47877e-10, No Iterations 1
Elapsed = 1049 mus
Time = 0.026
 size 26
DILUPBiCGStab:  Solving for Ux, Initial residual = 0.000143998, Final residual = 1.47861e-10, No Iterations 1
DILUPBiCGStab:  Solving for Uy, Initial residual = 0.000143998, Final residual = 1.47861e-10, No Iterations 1
Elapsed = 991 mus
Time = 0.027
 size 27
DILUPBiCGStab:  Solving for Ux, Initial residual = 0.000143989, Final residual = 1.47845e-10, No Iterations 1
DILUPBiCGStab:  Solving for Uy, Initial residual = 0.000143989, Final residual = 1.47845e-10, No Iterations 1
Elapsed = 1014 mus
Time = 0.028
 size 28
DILUPBiCGStab:  Solving for Ux, Initial residual = 0.000143981, Final residual = 1.47827e-10, No Iterations 1
DILUPBiCGStab:  Solving for Uy, Initial residual = 0.000143981, Final residual = 1.47827e-10, No Iterations 1
Elapsed = 987 mus
Time = 0.029
 size 29
DILUPBiCGStab:  Solving for Ux, Initial residual = 0.000143972, Final residual = 1.4781e-10, No Iterations 1
DILUPBiCGStab:  Solving for Uy, Initial residual = 0.000143972, Final residual = 1.4781e-10, No Iterations 1
Elapsed = 1004 mus
Time = 0.03
 size 30
DILUPBiCGStab:  Solving for Ux, Initial residual = 0.000143963, Final residual = 1.47791e-10, No Iterations 1
DILUPBiCGStab:  Solving for Uy, Initial residual = 0.000143963, Final residual = 1.47791e-10, No Iterations 1
Elapsed = 960 mus
 # DEBUG burgers.C, line 196 # 10 31
Time = 0.031
 size 31
DILUPBiCGStab:  Solving for Ux, Initial residual = 0.000143954, Final residual = 1.47772e-10, No Iterations 1
DILUPBiCGStab:  Solving for Uy, Initial residual = 0.000143954, Final residual = 1.47772e-10, No Iterations 1
Elapsed = 1089 mus
Time = 0.032
 size 32
DILUPBiCGStab:  Solving for Ux, Initial residual = 0.000143945, Final residual = 1.47753e-10, No Iterations 1
DILUPBiCGStab:  Solving for Uy, Initial residual = 0.000143945, Final residual = 1.47753e-10, No Iterations 1
Elapsed = 1031 mus
Time = 0.033
 size 33
DILUPBiCGStab:  Solving for Ux, Initial residual = 0.000143935, Final residual = 1.47733e-10, No Iterations 1
DILUPBiCGStab:  Solving for Uy, Initial residual = 0.000143935, Final residual = 1.47733e-10, No Iterations 1
Elapsed = 1043 mus
Time = 0.034
 size 34
DILUPBiCGStab:  Solving for Ux, Initial residual = 0.000143925, Final residual = 1.47712e-10, No Iterations 1
DILUPBiCGStab:  Solving for Uy, Initial residual = 0.000143925, Final residual = 1.47712e-10, No Iterations 1
Elapsed = 929 mus
Time = 0.035
 size 35
DILUPBiCGStab:  Solving for Ux, Initial residual = 0.000143915, Final residual = 1.4769e-10, No Iterations 1
DILUPBiCGStab:  Solving for Uy, Initial residual = 0.000143915, Final residual = 1.4769e-10, No Iterations 1
Elapsed = 997 mus
Time = 0.036
 size 36
DILUPBiCGStab:  Solving for Ux, Initial residual = 0.000143904, Final residual = 1.47668e-10, No Iterations 1
DILUPBiCGStab:  Solving for Uy, Initial residual = 0.000143904, Final residual = 1.47668e-10, No Iterations 1
Elapsed = 967 mus
Time = 0.037
 size 37
DILUPBiCGStab:  Solving for Ux, Initial residual = 0.000143893, Final residual = 1.47645e-10, No Iterations 1
DILUPBiCGStab:  Solving for Uy, Initial residual = 0.000143893, Final residual = 1.47645e-10, No Iterations 1
Elapsed = 993 mus
Time = 0.038
 size 38
DILUPBiCGStab:  Solving for Ux, Initial residual = 0.000143883, Final residual = 1.47622e-10, No Iterations 1
DILUPBiCGStab:  Solving for Uy, Initial residual = 0.000143883, Final residual = 1.47622e-10, No Iterations 1
Elapsed = 917 mus
Time = 0.039
 size 39
DILUPBiCGStab:  Solving for Ux, Initial residual = 0.000143874, Final residual = 1.47598e-10, No Iterations 1
DILUPBiCGStab:  Solving for Uy, Initial residual = 0.000143874, Final residual = 1.47598e-10, No Iterations 1
Elapsed = 979 mus
Time = 0.04
 size 40
DILUPBiCGStab:  Solving for Ux, Initial residual = 0.000143865, Final residual = 1.47574e-10, No Iterations 1
DILUPBiCGStab:  Solving for Uy, Initial residual = 0.000143865, Final residual = 1.47574e-10, No Iterations 1
Elapsed = 969 mus
 # DEBUG burgers.C, line 196 # 10 41
Time = 0.041
 size 41
DILUPBiCGStab:  Solving for Ux, Initial residual = 0.000143855, Final residual = 1.47548e-10, No Iterations 1
DILUPBiCGStab:  Solving for Uy, Initial residual = 0.000143855, Final residual = 1.47548e-10, No Iterations 1
Elapsed = 1055 mus
Time = 0.042
 size 42
DILUPBiCGStab:  Solving for Ux, Initial residual = 0.000143845, Final residual = 1.47523e-10, No Iterations 1
DILUPBiCGStab:  Solving for Uy, Initial residual = 0.000143845, Final residual = 1.47523e-10, No Iterations 1
Elapsed = 929 mus
Time = 0.043
 size 43
DILUPBiCGStab:  Solving for Ux, Initial residual = 0.000143835, Final residual = 1.47496e-10, No Iterations 1
DILUPBiCGStab:  Solving for Uy, Initial residual = 0.000143835, Final residual = 1.47496e-10, No Iterations 1
Elapsed = 966 mus
Time = 0.044
 size 44
DILUPBiCGStab:  Solving for Ux, Initial residual = 0.000143825, Final residual = 1.47469e-10, No Iterations 1
DILUPBiCGStab:  Solving for Uy, Initial residual = 0.000143825, Final residual = 1.47469e-10, No Iterations 1
Elapsed = 944 mus
Time = 0.045
 size 45
DILUPBiCGStab:  Solving for Ux, Initial residual = 0.000143814, Final residual = 1.47441e-10, No Iterations 1
DILUPBiCGStab:  Solving for Uy, Initial residual = 0.000143814, Final residual = 1.47441e-10, No Iterations 1
Elapsed = 972 mus
Time = 0.046
 size 46
DILUPBiCGStab:  Solving for Ux, Initial residual = 0.000143803, Final residual = 1.47413e-10, No Iterations 1
DILUPBiCGStab:  Solving for Uy, Initial residual = 0.000143803, Final residual = 1.47413e-10, No Iterations 1
Elapsed = 912 mus
Time = 0.047
 size 47
DILUPBiCGStab:  Solving for Ux, Initial residual = 0.000143792, Final residual = 1.47385e-10, No Iterations 1
DILUPBiCGStab:  Solving for Uy, Initial residual = 0.000143792, Final residual = 1.47385e-10, No Iterations 1
Elapsed = 970 mus
Time = 0.048
 size 48
DILUPBiCGStab:  Solving for Ux, Initial residual = 0.000143781, Final residual = 1.47355e-10, No Iterations 1
DILUPBiCGStab:  Solving for Uy, Initial residual = 0.000143781, Final residual = 1.47355e-10, No Iterations 1
Elapsed = 940 mus
Time = 0.049
 size 49
DILUPBiCGStab:  Solving for Ux, Initial residual = 0.000143769, Final residual = 1.47326e-10, No Iterations 1
DILUPBiCGStab:  Solving for Uy, Initial residual = 0.000143769, Final residual = 1.47326e-10, No Iterations 1
Elapsed = 1003 mus
Time = 0.05
 size 50
DILUPBiCGStab:  Solving for Ux, Initial residual = 0.000143757, Final residual = 1.47295e-10, No Iterations 1
DILUPBiCGStab:  Solving for Uy, Initial residual = 0.000143757, Final residual = 1.47295e-10, No Iterations 1
Elapsed = 907 mus
 # DEBUG burgers.C, line 196 # 10 51
Time = 0.051
 size 51
DILUPBiCGStab:  Solving for Ux, Initial residual = 0.000143745, Final residual = 1.47264e-10, No Iterations 1
DILUPBiCGStab:  Solving for Uy, Initial residual = 0.000143745, Final residual = 1.47264e-10, No Iterations 1
Elapsed = 1019 mus
Time = 0.052
 size 52
DILUPBiCGStab:  Solving for Ux, Initial residual = 0.000143733, Final residual = 1.47235e-10, No Iterations 1
DILUPBiCGStab:  Solving for Uy, Initial residual = 0.000143733, Final residual = 1.47235e-10, No Iterations 1
Elapsed = 947 mus
Time = 0.053
 size 53
DILUPBiCGStab:  Solving for Ux, Initial residual = 0.00014372, Final residual = 1.47206e-10, No Iterations 1
DILUPBiCGStab:  Solving for Uy, Initial residual = 0.00014372, Final residual = 1.47206e-10, No Iterations 1
Elapsed = 985 mus
Time = 0.054
 size 54
DILUPBiCGStab:  Solving for Ux, Initial residual = 0.000143707, Final residual = 1.47176e-10, No Iterations 1
DILUPBiCGStab:  Solving for Uy, Initial residual = 0.000143707, Final residual = 1.47176e-10, No Iterations 1
Elapsed = 930 mus
Time = 0.055
 size 55
DILUPBiCGStab:  Solving for Ux, Initial residual = 0.000143694, Final residual = 1.47145e-10, No Iterations 1
DILUPBiCGStab:  Solving for Uy, Initial residual = 0.000143694, Final residual = 1.47145e-10, No Iterations 1
Elapsed = 1019 mus
Time = 0.056
 size 56
DILUPBiCGStab:  Solving for Ux, Initial residual = 0.000143681, Final residual = 1.47114e-10, No Iterations 1
DILUPBiCGStab:  Solving for Uy, Initial residual = 0.000143681, Final residual = 1.47114e-10, No Iterations 1
Elapsed = 871 mus
Time = 0.057
 size 57
DILUPBiCGStab:  Solving for Ux, Initial residual = 0.000143667, Final residual = 1.47082e-10, No Iterations 1
DILUPBiCGStab:  Solving for Uy, Initial residual = 0.000143667, Final residual = 1.47082e-10, No Iterations 1
Elapsed = 825 mus
Time = 0.058
 size 58
DILUPBiCGStab:  Solving for Ux, Initial residual = 0.000143653, Final residual = 1.4705e-10, No Iterations 1
DILUPBiCGStab:  Solving for Uy, Initial residual = 0.000143653, Final residual = 1.4705e-10, No Iterations 1
Elapsed = 732 mus
Time = 0.059
 size 59
DILUPBiCGStab:  Solving for Ux, Initial residual = 0.000143639, Final residual = 1.47016e-10, No Iterations 1
DILUPBiCGStab:  Solving for Uy, Initial residual = 0.000143639, Final residual = 1.47016e-10, No Iterations 1
Elapsed = 741 mus
Time = 0.06
 size 60
DILUPBiCGStab:  Solving for Ux, Initial residual = 0.000143625, Final residual = 1.46984e-10, No Iterations 1
DILUPBiCGStab:  Solving for Uy, Initial residual = 0.000143625, Final residual = 1.46984e-10, No Iterations 1
Elapsed = 715 mus
 # DEBUG burgers.C, line 196 # 10 61
Time = 0.061
 size 61
DILUPBiCGStab:  Solving for Ux, Initial residual = 0.00014361, Final residual = 1.46955e-10, No Iterations 1
DILUPBiCGStab:  Solving for Uy, Initial residual = 0.00014361, Final residual = 1.46955e-10, No Iterations 1
Elapsed = 804 mus
Time = 0.062
 size 62
DILUPBiCGStab:  Solving for Ux, Initial residual = 0.000143595, Final residual = 1.46925e-10, No Iterations 1
DILUPBiCGStab:  Solving for Uy, Initial residual = 0.000143595, Final residual = 1.46925e-10, No Iterations 1
Elapsed = 719 mus
Time = 0.063
 size 63
DILUPBiCGStab:  Solving for Ux, Initial residual = 0.00014358, Final residual = 1.46894e-10, No Iterations 1
DILUPBiCGStab:  Solving for Uy, Initial residual = 0.00014358, Final residual = 1.46894e-10, No Iterations 1
Elapsed = 732 mus
Time = 0.064
 size 64
DILUPBiCGStab:  Solving for Ux, Initial residual = 0.000143566, Final residual = 1.46863e-10, No Iterations 1
DILUPBiCGStab:  Solving for Uy, Initial residual = 0.000143566, Final residual = 1.46863e-10, No Iterations 1
Elapsed = 750 mus
Time = 0.065
 size 65
DILUPBiCGStab:  Solving for Ux, Initial residual = 0.000143552, Final residual = 1.46831e-10, No Iterations 1
DILUPBiCGStab:  Solving for Uy, Initial residual = 0.000143552, Final residual = 1.46831e-10, No Iterations 1
Elapsed = 720 mus
Time = 0.066
 size 66
DILUPBiCGStab:  Solving for Ux, Initial residual = 0.000143542, Final residual = 1.46799e-10, No Iterations 1
DILUPBiCGStab:  Solving for Uy, Initial residual = 0.000143542, Final residual = 1.46799e-10, No Iterations 1
Elapsed = 717 mus
Time = 0.067
 size 67
DILUPBiCGStab:  Solving for Ux, Initial residual = 0.000143531, Final residual = 1.46766e-10, No Iterations 1
DILUPBiCGStab:  Solving for Uy, Initial residual = 0.000143531, Final residual = 1.46766e-10, No Iterations 1
Elapsed = 804 mus
Time = 0.068
 size 68
DILUPBiCGStab:  Solving for Ux, Initial residual = 0.00014352, Final residual = 1.46732e-10, No Iterations 1
DILUPBiCGStab:  Solving for Uy, Initial residual = 0.00014352, Final residual = 1.46732e-10, No Iterations 1
Elapsed = 720 mus
Time = 0.069
 size 69
DILUPBiCGStab:  Solving for Ux, Initial residual = 0.000143509, Final residual = 1.46703e-10, No Iterations 1
DILUPBiCGStab:  Solving for Uy, Initial residual = 0.000143509, Final residual = 1.46703e-10, No Iterations 1
Elapsed = 747 mus
Time = 0.07
 size 70
DILUPBiCGStab:  Solving for Ux, Initial residual = 0.0001435, Final residual = 1.46676e-10, No Iterations 1
DILUPBiCGStab:  Solving for Uy, Initial residual = 0.0001435, Final residual = 1.46676e-10, No Iterations 1
Elapsed = 722 mus
 # DEBUG burgers.C, line 196 # 10 71
Time = 0.071
 size 71
DILUPBiCGStab:  Solving for Ux, Initial residual = 0.000143492, Final residual = 1.46647e-10, No Iterations 1
DILUPBiCGStab:  Solving for Uy, Initial residual = 0.000143492, Final residual = 1.46647e-10, No Iterations 1
Elapsed = 770 mus
Time = 0.072
 size 72
DILUPBiCGStab:  Solving for Ux, Initial residual = 0.000143484, Final residual = 1.46618e-10, No Iterations 1
DILUPBiCGStab:  Solving for Uy, Initial residual = 0.000143484, Final residual = 1.46618e-10, No Iterations 1
Elapsed = 730 mus
Time = 0.073
 size 73
DILUPBiCGStab:  Solving for Ux, Initial residual = 0.000143476, Final residual = 1.46594e-10, No Iterations 1
DILUPBiCGStab:  Solving for Uy, Initial residual = 0.000143476, Final residual = 1.46594e-10, No Iterations 1
Elapsed = 766 mus
Time = 0.074
 size 74
DILUPBiCGStab:  Solving for Ux, Initial residual = 0.000143467, Final residual = 1.4657e-10, No Iterations 1
DILUPBiCGStab:  Solving for Uy, Initial residual = 0.000143467, Final residual = 1.4657e-10, No Iterations 1
Elapsed = 762 mus
Time = 0.075
 size 75
DILUPBiCGStab:  Solving for Ux, Initial residual = 0.000143459, Final residual = 1.46546e-10, No Iterations 1
DILUPBiCGStab:  Solving for Uy, Initial residual = 0.000143459, Final residual = 1.46546e-10, No Iterations 1
Elapsed = 789 mus
Time = 0.076
 size 76
DILUPBiCGStab:  Solving for Ux, Initial residual = 0.00014345, Final residual = 1.4652e-10, No Iterations 1
DILUPBiCGStab:  Solving for Uy, Initial residual = 0.00014345, Final residual = 1.4652e-10, No Iterations 1
Elapsed = 701 mus
Time = 0.077
 size 77
DILUPBiCGStab:  Solving for Ux, Initial residual = 0.000143441, Final residual = 1.46495e-10, No Iterations 1
DILUPBiCGStab:  Solving for Uy, Initial residual = 0.000143441, Final residual = 1.46495e-10, No Iterations 1
Elapsed = 782 mus
Time = 0.078
 size 78
DILUPBiCGStab:  Solving for Ux, Initial residual = 0.000143431, Final residual = 1.46469e-10, No Iterations 1
DILUPBiCGStab:  Solving for Uy, Initial residual = 0.000143431, Final residual = 1.46469e-10, No Iterations 1
Elapsed = 771 mus
Time = 0.079
 size 79
DILUPBiCGStab:  Solving for Ux, Initial residual = 0.000143422, Final residual = 1.46442e-10, No Iterations 1
DILUPBiCGStab:  Solving for Uy, Initial residual = 0.000143422, Final residual = 1.46442e-10, No Iterations 1
Elapsed = 768 mus
Time = 0.08
 size 80
DILUPBiCGStab:  Solving for Ux, Initial residual = 0.000143416, Final residual = 1.46414e-10, No Iterations 1
DILUPBiCGStab:  Solving for Uy, Initial residual = 0.000143416, Final residual = 1.46414e-10, No Iterations 1
Elapsed = 751 mus
 # DEBUG burgers.C, line 196 # 10 81
Time = 0.081
 size 81
DILUPBiCGStab:  Solving for Ux, Initial residual = 0.000143409, Final residual = 1.46391e-10, No Iterations 1
DILUPBiCGStab:  Solving for Uy, Initial residual = 0.000143409, Final residual = 1.46391e-10, No Iterations 1
Elapsed = 811 mus
Time = 0.082
 size 82
DILUPBiCGStab:  Solving for Ux, Initial residual = 0.000143402, Final residual = 1.46368e-10, No Iterations 1
DILUPBiCGStab:  Solving for Uy, Initial residual = 0.000143402, Final residual = 1.46368e-10, No Iterations 1
Elapsed = 776 mus
Time = 0.083
 size 83
DILUPBiCGStab:  Solving for Ux, Initial residual = 0.000143394, Final residual = 1.46348e-10, No Iterations 1
DILUPBiCGStab:  Solving for Uy, Initial residual = 0.000143394, Final residual = 1.46348e-10, No Iterations 1
Elapsed = 771 mus
Time = 0.084
 size 84
DILUPBiCGStab:  Solving for Ux, Initial residual = 0.000143387, Final residual = 1.46328e-10, No Iterations 1
DILUPBiCGStab:  Solving for Uy, Initial residual = 0.000143387, Final residual = 1.46328e-10, No Iterations 1
Elapsed = 706 mus
Time = 0.085
 size 85
DILUPBiCGStab:  Solving for Ux, Initial residual = 0.000143379, Final residual = 1.46307e-10, No Iterations 1
DILUPBiCGStab:  Solving for Uy, Initial residual = 0.000143379, Final residual = 1.46307e-10, No Iterations 1
Elapsed = 818 mus
Time = 0.086
 size 86
DILUPBiCGStab:  Solving for Ux, Initial residual = 0.000143371, Final residual = 1.46285e-10, No Iterations 1
DILUPBiCGStab:  Solving for Uy, Initial residual = 0.000143371, Final residual = 1.46285e-10, No Iterations 1
Elapsed = 717 mus
Time = 0.087
 size 87
DILUPBiCGStab:  Solving for Ux, Initial residual = 0.000143362, Final residual = 1.46263e-10, No Iterations 1
DILUPBiCGStab:  Solving for Uy, Initial residual = 0.000143362, Final residual = 1.46263e-10, No Iterations 1
Elapsed = 765 mus
Time = 0.088
 size 88
DILUPBiCGStab:  Solving for Ux, Initial residual = 0.000143354, Final residual = 1.4624e-10, No Iterations 1
DILUPBiCGStab:  Solving for Uy, Initial residual = 0.000143354, Final residual = 1.4624e-10, No Iterations 1
Elapsed = 739 mus
Time = 0.089
 size 89
DILUPBiCGStab:  Solving for Ux, Initial residual = 0.000143345, Final residual = 1.46217e-10, No Iterations 1
DILUPBiCGStab:  Solving for Uy, Initial residual = 0.000143345, Final residual = 1.46217e-10, No Iterations 1
Elapsed = 749 mus
Time = 0.09
 size 90
DILUPBiCGStab:  Solving for Ux, Initial residual = 0.000143336, Final residual = 1.46193e-10, No Iterations 1
DILUPBiCGStab:  Solving for Uy, Initial residual = 0.000143336, Final residual = 1.46193e-10, No Iterations 1
Elapsed = 814 mus
 # DEBUG burgers.C, line 196 # 10 91
Time = 0.091
 size 91
DILUPBiCGStab:  Solving for Ux, Initial residual = 0.000143327, Final residual = 1.46169e-10, No Iterations 1
DILUPBiCGStab:  Solving for Uy, Initial residual = 0.000143327, Final residual = 1.46169e-10, No Iterations 1
Elapsed = 780 mus
Time = 0.092
 size 92
DILUPBiCGStab:  Solving for Ux, Initial residual = 0.000143317, Final residual = 1.46144e-10, No Iterations 1
DILUPBiCGStab:  Solving for Uy, Initial residual = 0.000143317, Final residual = 1.46144e-10, No Iterations 1
Elapsed = 777 mus
Time = 0.093
 size 93
DILUPBiCGStab:  Solving for Ux, Initial residual = 0.000143307, Final residual = 1.46122e-10, No Iterations 1
DILUPBiCGStab:  Solving for Uy, Initial residual = 0.000143307, Final residual = 1.46122e-10, No Iterations 1
Elapsed = 818 mus
Time = 0.094
 size 94
DILUPBiCGStab:  Solving for Ux, Initial residual = 0.000143297, Final residual = 1.46099e-10, No Iterations 1
DILUPBiCGStab:  Solving for Uy, Initial residual = 0.000143297, Final residual = 1.46099e-10, No Iterations 1
Elapsed = 719 mus
Time = 0.095
 size 95
DILUPBiCGStab:  Solving for Ux, Initial residual = 0.00014329, Final residual = 1.46076e-10, No Iterations 1
DILUPBiCGStab:  Solving for Uy, Initial residual = 0.00014329, Final residual = 1.46076e-10, No Iterations 1
Elapsed = 800 mus
Time = 0.096
 size 96
DILUPBiCGStab:  Solving for Ux, Initial residual = 0.000143282, Final residual = 1.46053e-10, No Iterations 1
DILUPBiCGStab:  Solving for Uy, Initial residual = 0.000143282, Final residual = 1.46053e-10, No Iterations 1
Elapsed = 698 mus
Time = 0.097
 size 97
DILUPBiCGStab:  Solving for Ux, Initial residual = 0.000143274, Final residual = 1.46028e-10, No Iterations 1
DILUPBiCGStab:  Solving for Uy, Initial residual = 0.000143274, Final residual = 1.46028e-10, No Iterations 1
Elapsed = 703 mus
Time = 0.098
 size 98
DILUPBiCGStab:  Solving for Ux, Initial residual = 0.000143266, Final residual = 1.46004e-10, No Iterations 1
DILUPBiCGStab:  Solving for Uy, Initial residual = 0.000143266, Final residual = 1.46004e-10, No Iterations 1
Elapsed = 687 mus
Time = 0.099
 size 99
DILUPBiCGStab:  Solving for Ux, Initial residual = 0.000143258, Final residual = 1.45978e-10, No Iterations 1
DILUPBiCGStab:  Solving for Uy, Initial residual = 0.000143258, Final residual = 1.45978e-10, No Iterations 1
Elapsed = 722 mus
Time = 0.1
 size 100
DILUPBiCGStab:  Solving for Ux, Initial residual = 0.000143249, Final residual = 1.45952e-10, No Iterations 1
DILUPBiCGStab:  Solving for Uy, Initial residual = 0.000143249, Final residual = 1.45952e-10, No Iterations 1
Elapsed = 686 mus
 # DEBUG burgers.C, line 196 # 10 101
Time = 0.101
 size 101
DILUPBiCGStab:  Solving for Ux, Initial residual = 0.000143242, Final residual = 1.45926e-10, No Iterations 1
DILUPBiCGStab:  Solving for Uy, Initial residual = 0.000143242, Final residual = 1.45926e-10, No Iterations 1
Elapsed = 728 mus
Time = 0.102
 size 102
DILUPBiCGStab:  Solving for Ux, Initial residual = 0.000143234, Final residual = 1.45898e-10, No Iterations 1
DILUPBiCGStab:  Solving for Uy, Initial residual = 0.000143234, Final residual = 1.45898e-10, No Iterations 1
Elapsed = 678 mus
Time = 0.103
 size 103
DILUPBiCGStab:  Solving for Ux, Initial residual = 0.000143226, Final residual = 1.45871e-10, No Iterations 1
DILUPBiCGStab:  Solving for Uy, Initial residual = 0.000143226, Final residual = 1.45871e-10, No Iterations 1
Elapsed = 693 mus
Time = 0.104
 size 104
DILUPBiCGStab:  Solving for Ux, Initial residual = 0.000143217, Final residual = 1.45843e-10, No Iterations 1
DILUPBiCGStab:  Solving for Uy, Initial residual = 0.000143217, Final residual = 1.45843e-10, No Iterations 1
Elapsed = 680 mus
Time = 0.105
 size 105
DILUPBiCGStab:  Solving for Ux, Initial residual = 0.000143209, Final residual = 1.45814e-10, No Iterations 1
DILUPBiCGStab:  Solving for Uy, Initial residual = 0.000143209, Final residual = 1.45814e-10, No Iterations 1
Elapsed = 787 mus
Time = 0.106
 size 106
DILUPBiCGStab:  Solving for Ux, Initial residual = 0.0001432, Final residual = 1.45785e-10, No Iterations 1
DILUPBiCGStab:  Solving for Uy, Initial residual = 0.0001432, Final residual = 1.45785e-10, No Iterations 1
Elapsed = 723 mus
Time = 0.107
 size 107
DILUPBiCGStab:  Solving for Ux, Initial residual = 0.00014319, Final residual = 1.45756e-10, No Iterations 1
DILUPBiCGStab:  Solving for Uy, Initial residual = 0.00014319, Final residual = 1.45756e-10, No Iterations 1
Elapsed = 693 mus
Time = 0.108
 size 108
DILUPBiCGStab:  Solving for Ux, Initial residual = 0.000143181, Final residual = 1.45728e-10, No Iterations 1
DILUPBiCGStab:  Solving for Uy, Initial residual = 0.000143181, Final residual = 1.45728e-10, No Iterations 1
Elapsed = 688 mus
Time = 0.109
 size 109
DILUPBiCGStab:  Solving for Ux, Initial residual = 0.000143171, Final residual = 1.457e-10, No Iterations 1
DILUPBiCGStab:  Solving for Uy, Initial residual = 0.000143171, Final residual = 1.457e-10, No Iterations 1
Elapsed = 845 mus
Time = 0.11
 size 110
DILUPBiCGStab:  Solving for Ux, Initial residual = 0.000143161, Final residual = 1.4567e-10, No Iterations 1
DILUPBiCGStab:  Solving for Uy, Initial residual = 0.000143161, Final residual = 1.4567e-10, No Iterations 1
Elapsed = 684 mus
 # DEBUG burgers.C, line 196 # 10 111
Time = 0.111
 size 111
DILUPBiCGStab:  Solving for Ux, Initial residual = 0.000143151, Final residual = 1.45641e-10, No Iterations 1
DILUPBiCGStab:  Solving for Uy, Initial residual = 0.000143151, Final residual = 1.45641e-10, No Iterations 1
Elapsed = 742 mus
Time = 0.112
 size 112
DILUPBiCGStab:  Solving for Ux, Initial residual = 0.000143141, Final residual = 1.45614e-10, No Iterations 1
DILUPBiCGStab:  Solving for Uy, Initial residual = 0.000143141, Final residual = 1.45614e-10, No Iterations 1
Elapsed = 725 mus
Time = 0.113
 size 113
DILUPBiCGStab:  Solving for Ux, Initial residual = 0.00014313, Final residual = 1.45586e-10, No Iterations 1
DILUPBiCGStab:  Solving for Uy, Initial residual = 0.00014313, Final residual = 1.45586e-10, No Iterations 1
Elapsed = 704 mus
Time = 0.114
 size 114
DILUPBiCGStab:  Solving for Ux, Initial residual = 0.000143119, Final residual = 1.45558e-10, No Iterations 1
DILUPBiCGStab:  Solving for Uy, Initial residual = 0.000143119, Final residual = 1.45558e-10, No Iterations 1
Elapsed = 666 mus
Time = 0.115
 size 115
DILUPBiCGStab:  Solving for Ux, Initial residual = 0.000143108, Final residual = 1.4553e-10, No Iterations 1
DILUPBiCGStab:  Solving for Uy, Initial residual = 0.000143108, Final residual = 1.4553e-10, No Iterations 1
Elapsed = 690 mus
Time = 0.116
 size 116
DILUPBiCGStab:  Solving for Ux, Initial residual = 0.000143097, Final residual = 1.45502e-10, No Iterations 1
DILUPBiCGStab:  Solving for Uy, Initial residual = 0.000143097, Final residual = 1.45502e-10, No Iterations 1
Elapsed = 691 mus
Time = 0.117
 size 117
DILUPBiCGStab:  Solving for Ux, Initial residual = 0.000143087, Final residual = 1.45476e-10, No Iterations 1
DILUPBiCGStab:  Solving for Uy, Initial residual = 0.000143087, Final residual = 1.45476e-10, No Iterations 1
Elapsed = 797 mus
Time = 0.118
 size 118
DILUPBiCGStab:  Solving for Ux, Initial residual = 0.000143077, Final residual = 1.4545e-10, No Iterations 1
DILUPBiCGStab:  Solving for Uy, Initial residual = 0.000143077, Final residual = 1.4545e-10, No Iterations 1
Elapsed = 687 mus
Time = 0.119
 size 119
DILUPBiCGStab:  Solving for Ux, Initial residual = 0.000143067, Final residual = 1.45423e-10, No Iterations 1
DILUPBiCGStab:  Solving for Uy, Initial residual = 0.000143067, Final residual = 1.45423e-10, No Iterations 1
Elapsed = 705 mus
Time = 0.12
 size 120
DILUPBiCGStab:  Solving for Ux, Initial residual = 0.000143058, Final residual = 1.45395e-10, No Iterations 1
DILUPBiCGStab:  Solving for Uy, Initial residual = 0.000143058, Final residual = 1.45395e-10, No Iterations 1
Elapsed = 746 mus
 # DEBUG burgers.C, line 196 # 10 121
Time = 0.121
 size 121
DILUPBiCGStab:  Solving for Ux, Initial residual = 0.000143047, Final residual = 1.45367e-10, No Iterations 1
DILUPBiCGStab:  Solving for Uy, Initial residual = 0.000143047, Final residual = 1.45367e-10, No Iterations 1
Elapsed = 743 mus
Time = 0.122
 size 122
DILUPBiCGStab:  Solving for Ux, Initial residual = 0.000143037, Final residual = 1.45339e-10, No Iterations 1
DILUPBiCGStab:  Solving for Uy, Initial residual = 0.000143037, Final residual = 1.45339e-10, No Iterations 1
Elapsed = 700 mus
Time = 0.123
 size 123
DILUPBiCGStab:  Solving for Ux, Initial residual = 0.000143026, Final residual = 1.4531e-10, No Iterations 1
DILUPBiCGStab:  Solving for Uy, Initial residual = 0.000143026, Final residual = 1.4531e-10, No Iterations 1
Elapsed = 731 mus
Time = 0.124
 size 124
DILUPBiCGStab:  Solving for Ux, Initial residual = 0.000143015, Final residual = 1.4528e-10, No Iterations 1
DILUPBiCGStab:  Solving for Uy, Initial residual = 0.000143015, Final residual = 1.4528e-10, No Iterations 1
Elapsed = 699 mus
Time = 0.125
 size 125
DILUPBiCGStab:  Solving for Ux, Initial residual = 0.000143004, Final residual = 1.45252e-10, No Iterations 1
DILUPBiCGStab:  Solving for Uy, Initial residual = 0.000143004, Final residual = 1.45252e-10, No Iterations 1
Elapsed = 729 mus
Time = 0.126
 size 126
DILUPBiCGStab:  Solving for Ux, Initial residual = 0.000142993, Final residual = 1.45227e-10, No Iterations 1
DILUPBiCGStab:  Solving for Uy, Initial residual = 0.000142993, Final residual = 1.45227e-10, No Iterations 1
Elapsed = 691 mus
Time = 0.127
 size 127
DILUPBiCGStab:  Solving for Ux, Initial residual = 0.000142981, Final residual = 1.45204e-10, No Iterations 1
DILUPBiCGStab:  Solving for Uy, Initial residual = 0.000142981, Final residual = 1.45204e-10, No Iterations 1
Elapsed = 735 mus
Time = 0.128
 size 128
DILUPBiCGStab:  Solving for Ux, Initial residual = 0.000142969, Final residual = 1.45181e-10, No Iterations 1
DILUPBiCGStab:  Solving for Uy, Initial residual = 0.000142969, Final residual = 1.45181e-10, No Iterations 1
Elapsed = 729 mus
Time = 0.129
 size 129
DILUPBiCGStab:  Solving for Ux, Initial residual = 0.000142957, Final residual = 1.45158e-10, No Iterations 1
DILUPBiCGStab:  Solving for Uy, Initial residual = 0.000142957, Final residual = 1.45158e-10, No Iterations 1
Elapsed = 725 mus
Time = 0.13
 size 130
DILUPBiCGStab:  Solving for Ux, Initial residual = 0.000142945, Final residual = 1.45134e-10, No Iterations 1
DILUPBiCGStab:  Solving for Uy, Initial residual = 0.000142945, Final residual = 1.45134e-10, No Iterations 1
Elapsed = 688 mus
 # DEBUG burgers.C, line 196 # 10 131
Time = 0.131
 size 131
DILUPBiCGStab:  Solving for Ux, Initial residual = 0.000142932, Final residual = 1.45109e-10, No Iterations 1
DILUPBiCGStab:  Solving for Uy, Initial residual = 0.000142932, Final residual = 1.45109e-10, No Iterations 1
Elapsed = 806 mus
Time = 0.132
 size 132
DILUPBiCGStab:  Solving for Ux, Initial residual = 0.000142919, Final residual = 1.45084e-10, No Iterations 1
DILUPBiCGStab:  Solving for Uy, Initial residual = 0.000142919, Final residual = 1.45084e-10, No Iterations 1
Elapsed = 690 mus
Time = 0.133
 size 133
DILUPBiCGStab:  Solving for Ux, Initial residual = 0.000142906, Final residual = 1.45059e-10, No Iterations 1
DILUPBiCGStab:  Solving for Uy, Initial residual = 0.000142906, Final residual = 1.45059e-10, No Iterations 1
Elapsed = 705 mus
Time = 0.134
 size 134
DILUPBiCGStab:  Solving for Ux, Initial residual = 0.000142893, Final residual = 1.45033e-10, No Iterations 1
DILUPBiCGStab:  Solving for Uy, Initial residual = 0.000142893, Final residual = 1.45033e-10, No Iterations 1
Elapsed = 694 mus
Time = 0.135
 size 135
DILUPBiCGStab:  Solving for Ux, Initial residual = 0.000142879, Final residual = 1.45008e-10, No Iterations 1
DILUPBiCGStab:  Solving for Uy, Initial residual = 0.000142879, Final residual = 1.45008e-10, No Iterations 1
Elapsed = 726 mus
Time = 0.136
 size 136
DILUPBiCGStab:  Solving for Ux, Initial residual = 0.000142866, Final residual = 1.44987e-10, No Iterations 1
DILUPBiCGStab:  Solving for Uy, Initial residual = 0.000142866, Final residual = 1.44987e-10, No Iterations 1
Elapsed = 683 mus
Time = 0.137
 size 137
DILUPBiCGStab:  Solving for Ux, Initial residual = 0.000142853, Final residual = 1.44965e-10, No Iterations 1
DILUPBiCGStab:  Solving for Uy, Initial residual = 0.000142853, Final residual = 1.44965e-10, No Iterations 1
Elapsed = 695 mus
Time = 0.138
 size 138
DILUPBiCGStab:  Solving for Ux, Initial residual = 0.000142841, Final residual = 1.44943e-10, No Iterations 1
DILUPBiCGStab:  Solving for Uy, Initial residual = 0.000142841, Final residual = 1.44943e-10, No Iterations 1
Elapsed = 695 mus
Time = 0.139
 size 139
DILUPBiCGStab:  Solving for Ux, Initial residual = 0.000142828, Final residual = 1.4492e-10, No Iterations 1
DILUPBiCGStab:  Solving for Uy, Initial residual = 0.000142828, Final residual = 1.4492e-10, No Iterations 1
Elapsed = 746 mus
Time = 0.14
 size 140
DILUPBiCGStab:  Solving for Ux, Initial residual = 0.000142818, Final residual = 1.44897e-10, No Iterations 1
DILUPBiCGStab:  Solving for Uy, Initial residual = 0.000142818, Final residual = 1.44897e-10, No Iterations 1
Elapsed = 728 mus
 # DEBUG burgers.C, line 196 # 10 141
Time = 0.141
 size 141
DILUPBiCGStab:  Solving for Ux, Initial residual = 0.000142809, Final residual = 1.44873e-10, No Iterations 1
DILUPBiCGStab:  Solving for Uy, Initial residual = 0.000142809, Final residual = 1.44873e-10, No Iterations 1
Elapsed = 755 mus
Time = 0.142
 size 142
DILUPBiCGStab:  Solving for Ux, Initial residual = 0.000142799, Final residual = 1.4485e-10, No Iterations 1
DILUPBiCGStab:  Solving for Uy, Initial residual = 0.000142799, Final residual = 1.4485e-10, No Iterations 1
Elapsed = 703 mus
Time = 0.143
 size 143
DILUPBiCGStab:  Solving for Ux, Initial residual = 0.000142789, Final residual = 1.44829e-10, No Iterations 1
DILUPBiCGStab:  Solving for Uy, Initial residual = 0.000142789, Final residual = 1.44829e-10, No Iterations 1
Elapsed = 728 mus
Time = 0.144
 size 144
DILUPBiCGStab:  Solving for Ux, Initial residual = 0.000142779, Final residual = 1.44807e-10, No Iterations 1
DILUPBiCGStab:  Solving for Uy, Initial residual = 0.000142779, Final residual = 1.44807e-10, No Iterations 1
Elapsed = 690 mus
Time = 0.145
 size 145
DILUPBiCGStab:  Solving for Ux, Initial residual = 0.000142768, Final residual = 1.44789e-10, No Iterations 1
DILUPBiCGStab:  Solving for Uy, Initial residual = 0.000142768, Final residual = 1.44789e-10, No Iterations 1
Elapsed = 706 mus
Time = 0.146
 size 146
DILUPBiCGStab:  Solving for Ux, Initial residual = 0.000142758, Final residual = 1.44772e-10, No Iterations 1
DILUPBiCGStab:  Solving for Uy, Initial residual = 0.000142758, Final residual = 1.44772e-10, No Iterations 1
Elapsed = 691 mus
Time = 0.147
 size 147
DILUPBiCGStab:  Solving for Ux, Initial residual = 0.000142747, Final residual = 1.44756e-10, No Iterations 1
DILUPBiCGStab:  Solving for Uy, Initial residual = 0.000142747, Final residual = 1.44756e-10, No Iterations 1
Elapsed = 723 mus
Time = 0.148
 size 148
DILUPBiCGStab:  Solving for Ux, Initial residual = 0.000142735, Final residual = 1.44738e-10, No Iterations 1
DILUPBiCGStab:  Solving for Uy, Initial residual = 0.000142735, Final residual = 1.44738e-10, No Iterations 1
Elapsed = 706 mus
Time = 0.149
 size 149
DILUPBiCGStab:  Solving for Ux, Initial residual = 0.000142727, Final residual = 1.4472e-10, No Iterations 1
DILUPBiCGStab:  Solving for Uy, Initial residual = 0.000142727, Final residual = 1.4472e-10, No Iterations 1
Elapsed = 701 mus
Time = 0.15
 size 150
DILUPBiCGStab:  Solving for Ux, Initial residual = 0.000142721, Final residual = 1.44702e-10, No Iterations 1
DILUPBiCGStab:  Solving for Uy, Initial residual = 0.000142721, Final residual = 1.44702e-10, No Iterations 1
Elapsed = 745 mus
 # DEBUG burgers.C, line 196 # 10 151
Time = 0.151
 size 151
DILUPBiCGStab:  Solving for Ux, Initial residual = 0.000142714, Final residual = 1.44682e-10, No Iterations 1
DILUPBiCGStab:  Solving for Uy, Initial residual = 0.000142714, Final residual = 1.44682e-10, No Iterations 1
Elapsed = 776 mus
Time = 0.152
 size 152
DILUPBiCGStab:  Solving for Ux, Initial residual = 0.000142707, Final residual = 1.44663e-10, No Iterations 1
DILUPBiCGStab:  Solving for Uy, Initial residual = 0.000142707, Final residual = 1.44663e-10, No Iterations 1
Elapsed = 723 mus
Time = 0.153
 size 153
DILUPBiCGStab:  Solving for Ux, Initial residual = 0.0001427, Final residual = 1.44646e-10, No Iterations 1
DILUPBiCGStab:  Solving for Uy, Initial residual = 0.0001427, Final residual = 1.44646e-10, No Iterations 1
Elapsed = 775 mus
Time = 0.154
 size 154
DILUPBiCGStab:  Solving for Ux, Initial residual = 0.000142693, Final residual = 1.44631e-10, No Iterations 1
DILUPBiCGStab:  Solving for Uy, Initial residual = 0.000142693, Final residual = 1.44631e-10, No Iterations 1
Elapsed = 715 mus
Time = 0.155
 size 155
DILUPBiCGStab:  Solving for Ux, Initial residual = 0.000142686, Final residual = 1.44615e-10, No Iterations 1
DILUPBiCGStab:  Solving for Uy, Initial residual = 0.000142686, Final residual = 1.44615e-10, No Iterations 1
Elapsed = 784 mus
Time = 0.156
 size 156
DILUPBiCGStab:  Solving for Ux, Initial residual = 0.000142679, Final residual = 1.44598e-10, No Iterations 1
DILUPBiCGStab:  Solving for Uy, Initial residual = 0.000142679, Final residual = 1.44598e-10, No Iterations 1
Elapsed = 705 mus
Time = 0.157
 size 157
DILUPBiCGStab:  Solving for Ux, Initial residual = 0.000142672, Final residual = 1.44582e-10, No Iterations 1
DILUPBiCGStab:  Solving for Uy, Initial residual = 0.000142672, Final residual = 1.44582e-10, No Iterations 1
Elapsed = 735 mus
Time = 0.158
 size 158
DILUPBiCGStab:  Solving for Ux, Initial residual = 0.000142664, Final residual = 1.44564e-10, No Iterations 1
DILUPBiCGStab:  Solving for Uy, Initial residual = 0.000142664, Final residual = 1.44564e-10, No Iterations 1
Elapsed = 678 mus
Time = 0.159
 size 159
DILUPBiCGStab:  Solving for Ux, Initial residual = 0.000142656, Final residual = 1.44546e-10, No Iterations 1
DILUPBiCGStab:  Solving for Uy, Initial residual = 0.000142656, Final residual = 1.44546e-10, No Iterations 1
Elapsed = 712 mus
Time = 0.16
 size 160
DILUPBiCGStab:  Solving for Ux, Initial residual = 0.000142648, Final residual = 1.44528e-10, No Iterations 1
DILUPBiCGStab:  Solving for Uy, Initial residual = 0.000142648, Final residual = 1.44528e-10, No Iterations 1
Elapsed = 741 mus
 # DEBUG burgers.C, line 196 # 10 161
Time = 0.161
 size 161
DILUPBiCGStab:  Solving for Ux, Initial residual = 0.00014264, Final residual = 1.44509e-10, No Iterations 1
DILUPBiCGStab:  Solving for Uy, Initial residual = 0.00014264, Final residual = 1.44509e-10, No Iterations 1
Elapsed = 771 mus
Time = 0.162
 size 162
DILUPBiCGStab:  Solving for Ux, Initial residual = 0.000142632, Final residual = 1.44489e-10, No Iterations 1
DILUPBiCGStab:  Solving for Uy, Initial residual = 0.000142632, Final residual = 1.44489e-10, No Iterations 1
Elapsed = 689 mus
Time = 0.163
 size 163
DILUPBiCGStab:  Solving for Ux, Initial residual = 0.000142623, Final residual = 1.4447e-10, No Iterations 1
DILUPBiCGStab:  Solving for Uy, Initial residual = 0.000142623, Final residual = 1.4447e-10, No Iterations 1
Elapsed = 753 mus
Time = 0.164
 size 164
DILUPBiCGStab:  Solving for Ux, Initial residual = 0.000142614, Final residual = 1.4445e-10, No Iterations 1
DILUPBiCGStab:  Solving for Uy, Initial residual = 0.000142614, Final residual = 1.4445e-10, No Iterations 1
Elapsed = 714 mus
Time = 0.165
 size 165
DILUPBiCGStab:  Solving for Ux, Initial residual = 0.000142606, Final residual = 1.4443e-10, No Iterations 1
DILUPBiCGStab:  Solving for Uy, Initial residual = 0.000142606, Final residual = 1.4443e-10, No Iterations 1
Elapsed = 730 mus
Time = 0.166
 size 166
DILUPBiCGStab:  Solving for Ux, Initial residual = 0.000142599, Final residual = 1.4441e-10, No Iterations 1
DILUPBiCGStab:  Solving for Uy, Initial residual = 0.000142599, Final residual = 1.4441e-10, No Iterations 1
Elapsed = 746 mus
Time = 0.167
 size 167
DILUPBiCGStab:  Solving for Ux, Initial residual = 0.000142593, Final residual = 1.44395e-10, No Iterations 1
DILUPBiCGStab:  Solving for Uy, Initial residual = 0.000142593, Final residual = 1.44395e-10, No Iterations 1
Elapsed = 715 mus
Time = 0.168
 size 168
DILUPBiCGStab:  Solving for Ux, Initial residual = 0.000142586, Final residual = 1.44381e-10, No Iterations 1
DILUPBiCGStab:  Solving for Uy, Initial residual = 0.000142586, Final residual = 1.44381e-10, No Iterations 1
Elapsed = 705 mus
Time = 0.169
 size 169
DILUPBiCGStab:  Solving for Ux, Initial residual = 0.000142579, Final residual = 1.44368e-10, No Iterations 1
DILUPBiCGStab:  Solving for Uy, Initial residual = 0.000142579, Final residual = 1.44368e-10, No Iterations 1
Elapsed = 786 mus
Time = 0.17
 size 170
DILUPBiCGStab:  Solving for Ux, Initial residual = 0.000142572, Final residual = 1.44355e-10, No Iterations 1
DILUPBiCGStab:  Solving for Uy, Initial residual = 0.000142572, Final residual = 1.44355e-10, No Iterations 1
Elapsed = 721 mus
 # DEBUG burgers.C, line 196 # 10 171
Time = 0.171
 size 171
DILUPBiCGStab:  Solving for Ux, Initial residual = 0.000142564, Final residual = 1.44341e-10, No Iterations 1
DILUPBiCGStab:  Solving for Uy, Initial residual = 0.000142564, Final residual = 1.44341e-10, No Iterations 1
Elapsed = 757 mus
Time = 0.172
 size 172
DILUPBiCGStab:  Solving for Ux, Initial residual = 0.000142557, Final residual = 1.44327e-10, No Iterations 1
DILUPBiCGStab:  Solving for Uy, Initial residual = 0.000142557, Final residual = 1.44327e-10, No Iterations 1
Elapsed = 706 mus
Time = 0.173
 size 173
DILUPBiCGStab:  Solving for Ux, Initial residual = 0.000142549, Final residual = 1.44311e-10, No Iterations 1
DILUPBiCGStab:  Solving for Uy, Initial residual = 0.000142549, Final residual = 1.44311e-10, No Iterations 1
Elapsed = 732 mus
Time = 0.174
 size 174
DILUPBiCGStab:  Solving for Ux, Initial residual = 0.000142541, Final residual = 1.44296e-10, No Iterations 1
DILUPBiCGStab:  Solving for Uy, Initial residual = 0.000142541, Final residual = 1.44296e-10, No Iterations 1
Elapsed = 707 mus
Time = 0.175
 size 175
DILUPBiCGStab:  Solving for Ux, Initial residual = 0.000142532, Final residual = 1.4428e-10, No Iterations 1
DILUPBiCGStab:  Solving for Uy, Initial residual = 0.000142532, Final residual = 1.4428e-10, No Iterations 1
Elapsed = 721 mus
Time = 0.176
 size 176
DILUPBiCGStab:  Solving for Ux, Initial residual = 0.000142523, Final residual = 1.44263e-10, No Iterations 1
DILUPBiCGStab:  Solving for Uy, Initial residual = 0.000142523, Final residual = 1.44263e-10, No Iterations 1
Elapsed = 686 mus
Time = 0.177
 size 177
DILUPBiCGStab:  Solving for Ux, Initial residual = 0.000142515, Final residual = 1.44246e-10, No Iterations 1
DILUPBiCGStab:  Solving for Uy, Initial residual = 0.000142515, Final residual = 1.44246e-10, No Iterations 1
Elapsed = 734 mus
Time = 0.178
 size 178
DILUPBiCGStab:  Solving for Ux, Initial residual = 0.000142505, Final residual = 1.44229e-10, No Iterations 1
DILUPBiCGStab:  Solving for Uy, Initial residual = 0.000142505, Final residual = 1.44229e-10, No Iterations 1
Elapsed = 690 mus
Time = 0.179
 size 179
DILUPBiCGStab:  Solving for Ux, Initial residual = 0.000142496, Final residual = 1.4421e-10, No Iterations 1
DILUPBiCGStab:  Solving for Uy, Initial residual = 0.000142496, Final residual = 1.4421e-10, No Iterations 1
Elapsed = 731 mus
Time = 0.18
 size 180
DILUPBiCGStab:  Solving for Ux, Initial residual = 0.000142486, Final residual = 1.44191e-10, No Iterations 1
DILUPBiCGStab:  Solving for Uy, Initial residual = 0.000142486, Final residual = 1.44191e-10, No Iterations 1
Elapsed = 774 mus
 # DEBUG burgers.C, line 196 # 10 181
Time = 0.181
 size 181
DILUPBiCGStab:  Solving for Ux, Initial residual = 0.000142477, Final residual = 1.44173e-10, No Iterations 1
DILUPBiCGStab:  Solving for Uy, Initial residual = 0.000142477, Final residual = 1.44173e-10, No Iterations 1
Elapsed = 770 mus
Time = 0.182
 size 182
DILUPBiCGStab:  Solving for Ux, Initial residual = 0.000142466, Final residual = 1.44156e-10, No Iterations 1
DILUPBiCGStab:  Solving for Uy, Initial residual = 0.000142466, Final residual = 1.44156e-10, No Iterations 1
Elapsed = 707 mus
Time = 0.183
 size 183
DILUPBiCGStab:  Solving for Ux, Initial residual = 0.000142456, Final residual = 1.44138e-10, No Iterations 1
DILUPBiCGStab:  Solving for Uy, Initial residual = 0.000142456, Final residual = 1.44138e-10, No Iterations 1
Elapsed = 726 mus
Time = 0.184
 size 184
DILUPBiCGStab:  Solving for Ux, Initial residual = 0.000142445, Final residual = 1.4412e-10, No Iterations 1
DILUPBiCGStab:  Solving for Uy, Initial residual = 0.000142445, Final residual = 1.4412e-10, No Iterations 1
Elapsed = 781 mus
Time = 0.185
 size 185
DILUPBiCGStab:  Solving for Ux, Initial residual = 0.000142435, Final residual = 1.44101e-10, No Iterations 1
DILUPBiCGStab:  Solving for Uy, Initial residual = 0.000142435, Final residual = 1.44101e-10, No Iterations 1
Elapsed = 783 mus
Time = 0.186
 size 186
DILUPBiCGStab:  Solving for Ux, Initial residual = 0.000142424, Final residual = 1.44084e-10, No Iterations 1
DILUPBiCGStab:  Solving for Uy, Initial residual = 0.000142424, Final residual = 1.44084e-10, No Iterations 1
Elapsed = 704 mus
Time = 0.187
 size 187
DILUPBiCGStab:  Solving for Ux, Initial residual = 0.000142412, Final residual = 1.44067e-10, No Iterations 1
DILUPBiCGStab:  Solving for Uy, Initial residual = 0.000142412, Final residual = 1.44067e-10, No Iterations 1
Elapsed = 736 mus
Time = 0.188
 size 188
DILUPBiCGStab:  Solving for Ux, Initial residual = 0.000142401, Final residual = 1.4405e-10, No Iterations 1
DILUPBiCGStab:  Solving for Uy, Initial residual = 0.000142401, Final residual = 1.4405e-10, No Iterations 1
Elapsed = 744 mus
Time = 0.189
 size 189
DILUPBiCGStab:  Solving for Ux, Initial residual = 0.000142389, Final residual = 1.44032e-10, No Iterations 1
DILUPBiCGStab:  Solving for Uy, Initial residual = 0.000142389, Final residual = 1.44032e-10, No Iterations 1
Elapsed = 719 mus
Time = 0.19
 size 190
DILUPBiCGStab:  Solving for Ux, Initial residual = 0.000142378, Final residual = 1.44014e-10, No Iterations 1
DILUPBiCGStab:  Solving for Uy, Initial residual = 0.000142378, Final residual = 1.44014e-10, No Iterations 1
Elapsed = 697 mus
 # DEBUG burgers.C, line 196 # 10 191
Time = 0.191
 size 191
DILUPBiCGStab:  Solving for Ux, Initial residual = 0.000142369, Final residual = 1.43997e-10, No Iterations 1
DILUPBiCGStab:  Solving for Uy, Initial residual = 0.000142369, Final residual = 1.43997e-10, No Iterations 1
Elapsed = 953 mus
Time = 0.192
 size 192
DILUPBiCGStab:  Solving for Ux, Initial residual = 0.000142359, Final residual = 1.43979e-10, No Iterations 1
DILUPBiCGStab:  Solving for Uy, Initial residual = 0.000142359, Final residual = 1.43979e-10, No Iterations 1
Elapsed = 755 mus
Time = 0.193
 size 193
DILUPBiCGStab:  Solving for Ux, Initial residual = 0.000142349, Final residual = 1.43961e-10, No Iterations 1
DILUPBiCGStab:  Solving for Uy, Initial residual = 0.000142349, Final residual = 1.43961e-10, No Iterations 1
Elapsed = 703 mus
Time = 0.194
 size 194
DILUPBiCGStab:  Solving for Ux, Initial residual = 0.000142338, Final residual = 1.43942e-10, No Iterations 1
DILUPBiCGStab:  Solving for Uy, Initial residual = 0.000142338, Final residual = 1.43942e-10, No Iterations 1
Elapsed = 768 mus
Time = 0.195
 size 195
DILUPBiCGStab:  Solving for Ux, Initial residual = 0.000142329, Final residual = 1.43923e-10, No Iterations 1
DILUPBiCGStab:  Solving for Uy, Initial residual = 0.000142329, Final residual = 1.43923e-10, No Iterations 1
Elapsed = 726 mus
Time = 0.196
 size 196
DILUPBiCGStab:  Solving for Ux, Initial residual = 0.000142319, Final residual = 1.43903e-10, No Iterations 1
DILUPBiCGStab:  Solving for Uy, Initial residual = 0.000142319, Final residual = 1.43903e-10, No Iterations 1
Elapsed = 1006 mus
Time = 0.197
 size 197
DILUPBiCGStab:  Solving for Ux, Initial residual = 0.00014231, Final residual = 1.43883e-10, No Iterations 1
DILUPBiCGStab:  Solving for Uy, Initial residual = 0.00014231, Final residual = 1.43883e-10, No Iterations 1
Elapsed = 804 mus
Time = 0.198
 size 198
DILUPBiCGStab:  Solving for Ux, Initial residual = 0.0001423, Final residual = 1.43862e-10, No Iterations 1
DILUPBiCGStab:  Solving for Uy, Initial residual = 0.0001423, Final residual = 1.43862e-10, No Iterations 1
Elapsed = 724 mus
Time = 0.199
 size 199
DILUPBiCGStab:  Solving for Ux, Initial residual = 0.00014229, Final residual = 1.4384e-10, No Iterations 1
DILUPBiCGStab:  Solving for Uy, Initial residual = 0.00014229, Final residual = 1.4384e-10, No Iterations 1
Elapsed = 733 mus
Time = 0.2
 size 200
DILUPBiCGStab:  Solving for Ux, Initial residual = 0.000142279, Final residual = 1.43818e-10, No Iterations 1
DILUPBiCGStab:  Solving for Uy, Initial residual = 0.000142279, Final residual = 1.43818e-10, No Iterations 1
Elapsed = 706 mus
 # DEBUG burgers.C, line 196 # 10 201
Time = 0.201
 size 201
DILUPBiCGStab:  Solving for Ux, Initial residual = 0.000142269, Final residual = 1.43795e-10, No Iterations 1
DILUPBiCGStab:  Solving for Uy, Initial residual = 0.000142269, Final residual = 1.43795e-10, No Iterations 1
Elapsed = 779 mus
Time = 0.202
 size 202
DILUPBiCGStab:  Solving for Ux, Initial residual = 0.000142258, Final residual = 1.43772e-10, No Iterations 1
DILUPBiCGStab:  Solving for Uy, Initial residual = 0.000142258, Final residual = 1.43772e-10, No Iterations 1
Elapsed = 714 mus
Time = 0.203
 size 203
DILUPBiCGStab:  Solving for Ux, Initial residual = 0.000142247, Final residual = 1.43753e-10, No Iterations 1
DILUPBiCGStab:  Solving for Uy, Initial residual = 0.000142247, Final residual = 1.43753e-10, No Iterations 1
Elapsed = 742 mus
Time = 0.204
 size 204
DILUPBiCGStab:  Solving for Ux, Initial residual = 0.000142236, Final residual = 1.43733e-10, No Iterations 1
DILUPBiCGStab:  Solving for Uy, Initial residual = 0.000142236, Final residual = 1.43733e-10, No Iterations 1
Elapsed = 723 mus
Time = 0.205
 size 205
DILUPBiCGStab:  Solving for Ux, Initial residual = 0.000142224, Final residual = 1.43714e-10, No Iterations 1
DILUPBiCGStab:  Solving for Uy, Initial residual = 0.000142224, Final residual = 1.43714e-10, No Iterations 1
Elapsed = 760 mus
Time = 0.206
 size 206
DILUPBiCGStab:  Solving for Ux, Initial residual = 0.000142213, Final residual = 1.43695e-10, No Iterations 1
DILUPBiCGStab:  Solving for Uy, Initial residual = 0.000142213, Final residual = 1.43695e-10, No Iterations 1
Elapsed = 713 mus
Time = 0.207
 size 207
DILUPBiCGStab:  Solving for Ux, Initial residual = 0.000142201, Final residual = 1.43675e-10, No Iterations 1
DILUPBiCGStab:  Solving for Uy, Initial residual = 0.000142201, Final residual = 1.43675e-10, No Iterations 1
Elapsed = 739 mus
Time = 0.208
 size 208
DILUPBiCGStab:  Solving for Ux, Initial residual = 0.000142188, Final residual = 1.43655e-10, No Iterations 1
DILUPBiCGStab:  Solving for Uy, Initial residual = 0.000142188, Final residual = 1.43655e-10, No Iterations 1
Elapsed = 814 mus
Time = 0.209
 size 209
DILUPBiCGStab:  Solving for Ux, Initial residual = 0.000142176, Final residual = 1.43634e-10, No Iterations 1
DILUPBiCGStab:  Solving for Uy, Initial residual = 0.000142176, Final residual = 1.43634e-10, No Iterations 1
Elapsed = 748 mus
Time = 0.21
 size 210
DILUPBiCGStab:  Solving for Ux, Initial residual = 0.000142163, Final residual = 1.43612e-10, No Iterations 1
DILUPBiCGStab:  Solving for Uy, Initial residual = 0.000142163, Final residual = 1.43612e-10, No Iterations 1
Elapsed = 770 mus
 # DEBUG burgers.C, line 196 # 10 211
Time = 0.211
 size 211
DILUPBiCGStab:  Solving for Ux, Initial residual = 0.000142153, Final residual = 1.4359e-10, No Iterations 1
DILUPBiCGStab:  Solving for Uy, Initial residual = 0.000142153, Final residual = 1.4359e-10, No Iterations 1
Elapsed = 789 mus
Time = 0.212
 size 212
DILUPBiCGStab:  Solving for Ux, Initial residual = 0.000142144, Final residual = 1.4357e-10, No Iterations 1
DILUPBiCGStab:  Solving for Uy, Initial residual = 0.000142144, Final residual = 1.4357e-10, No Iterations 1
Elapsed = 732 mus
Time = 0.213
 size 213
DILUPBiCGStab:  Solving for Ux, Initial residual = 0.000142134, Final residual = 1.43551e-10, No Iterations 1
DILUPBiCGStab:  Solving for Uy, Initial residual = 0.000142134, Final residual = 1.43551e-10, No Iterations 1
Elapsed = 763 mus
Time = 0.214
 size 214
DILUPBiCGStab:  Solving for Ux, Initial residual = 0.000142124, Final residual = 1.43532e-10, No Iterations 1
DILUPBiCGStab:  Solving for Uy, Initial residual = 0.000142124, Final residual = 1.43532e-10, No Iterations 1
Elapsed = 763 mus
Time = 0.215
 size 215
DILUPBiCGStab:  Solving for Ux, Initial residual = 0.000142114, Final residual = 1.43512e-10, No Iterations 1
DILUPBiCGStab:  Solving for Uy, Initial residual = 0.000142114, Final residual = 1.43512e-10, No Iterations 1
Elapsed = 754 mus
Time = 0.216
 size 216
DILUPBiCGStab:  Solving for Ux, Initial residual = 0.000142103, Final residual = 1.43492e-10, No Iterations 1
DILUPBiCGStab:  Solving for Uy, Initial residual = 0.000142103, Final residual = 1.43492e-10, No Iterations 1
Elapsed = 728 mus
Time = 0.217
 size 217
DILUPBiCGStab:  Solving for Ux, Initial residual = 0.000142093, Final residual = 1.43472e-10, No Iterations 1
DILUPBiCGStab:  Solving for Uy, Initial residual = 0.000142093, Final residual = 1.43472e-10, No Iterations 1
Elapsed = 753 mus
Time = 0.218
 size 218
DILUPBiCGStab:  Solving for Ux, Initial residual = 0.000142083, Final residual = 1.43452e-10, No Iterations 1
DILUPBiCGStab:  Solving for Uy, Initial residual = 0.000142083, Final residual = 1.43452e-10, No Iterations 1
Elapsed = 716 mus
Time = 0.219
 size 219
DILUPBiCGStab:  Solving for Ux, Initial residual = 0.000142075, Final residual = 1.43437e-10, No Iterations 1
DILUPBiCGStab:  Solving for Uy, Initial residual = 0.000142075, Final residual = 1.43437e-10, No Iterations 1
Elapsed = 736 mus
Time = 0.22
 size 220
DILUPBiCGStab:  Solving for Ux, Initial residual = 0.000142067, Final residual = 1.43422e-10, No Iterations 1
DILUPBiCGStab:  Solving for Uy, Initial residual = 0.000142067, Final residual = 1.43422e-10, No Iterations 1
Elapsed = 735 mus
 # DEBUG burgers.C, line 196 # 10 221
Time = 0.221
 size 221
DILUPBiCGStab:  Solving for Ux, Initial residual = 0.000142059, Final residual = 1.43405e-10, No Iterations 1
DILUPBiCGStab:  Solving for Uy, Initial residual = 0.000142059, Final residual = 1.43405e-10, No Iterations 1
Elapsed = 788 mus
Time = 0.222
 size 222
DILUPBiCGStab:  Solving for Ux, Initial residual = 0.00014205, Final residual = 1.43388e-10, No Iterations 1
DILUPBiCGStab:  Solving for Uy, Initial residual = 0.00014205, Final residual = 1.43388e-10, No Iterations 1
Elapsed = 728 mus
Time = 0.223
 size 223
DILUPBiCGStab:  Solving for Ux, Initial residual = 0.000142042, Final residual = 1.43371e-10, No Iterations 1
DILUPBiCGStab:  Solving for Uy, Initial residual = 0.000142042, Final residual = 1.43371e-10, No Iterations 1
Elapsed = 757 mus
Time = 0.224
 size 224
DILUPBiCGStab:  Solving for Ux, Initial residual = 0.000142033, Final residual = 1.43353e-10, No Iterations 1
DILUPBiCGStab:  Solving for Uy, Initial residual = 0.000142033, Final residual = 1.43353e-10, No Iterations 1
Elapsed = 711 mus
Time = 0.225
 size 225
DILUPBiCGStab:  Solving for Ux, Initial residual = 0.000142024, Final residual = 1.43338e-10, No Iterations 1
DILUPBiCGStab:  Solving for Uy, Initial residual = 0.000142024, Final residual = 1.43338e-10, No Iterations 1
Elapsed = 739 mus
Time = 0.226
 size 226
DILUPBiCGStab:  Solving for Ux, Initial residual = 0.000142015, Final residual = 1.43326e-10, No Iterations 1
DILUPBiCGStab:  Solving for Uy, Initial residual = 0.000142015, Final residual = 1.43326e-10, No Iterations 1
Elapsed = 727 mus
Time = 0.227
 size 227
DILUPBiCGStab:  Solving for Ux, Initial residual = 0.000142008, Final residual = 1.43312e-10, No Iterations 1
DILUPBiCGStab:  Solving for Uy, Initial residual = 0.000142008, Final residual = 1.43312e-10, No Iterations 1
Elapsed = 749 mus
Time = 0.228
 size 228
DILUPBiCGStab:  Solving for Ux, Initial residual = 0.000142, Final residual = 1.43299e-10, No Iterations 1
DILUPBiCGStab:  Solving for Uy, Initial residual = 0.000142, Final residual = 1.43299e-10, No Iterations 1
Elapsed = 708 mus
Time = 0.229
 size 229
DILUPBiCGStab:  Solving for Ux, Initial residual = 0.000141992, Final residual = 1.43284e-10, No Iterations 1
DILUPBiCGStab:  Solving for Uy, Initial residual = 0.000141992, Final residual = 1.43284e-10, No Iterations 1
Elapsed = 734 mus
Time = 0.23
 size 230
DILUPBiCGStab:  Solving for Ux, Initial residual = 0.000141984, Final residual = 1.4327e-10, No Iterations 1
DILUPBiCGStab:  Solving for Uy, Initial residual = 0.000141984, Final residual = 1.4327e-10, No Iterations 1
Elapsed = 745 mus
 # DEBUG burgers.C, line 196 # 10 231
Time = 0.231
 size 231
DILUPBiCGStab:  Solving for Ux, Initial residual = 0.000141976, Final residual = 1.43254e-10, No Iterations 1
DILUPBiCGStab:  Solving for Uy, Initial residual = 0.000141976, Final residual = 1.43254e-10, No Iterations 1
Elapsed = 760 mus
Time = 0.232
 size 232
DILUPBiCGStab:  Solving for Ux, Initial residual = 0.000141967, Final residual = 1.43238e-10, No Iterations 1
DILUPBiCGStab:  Solving for Uy, Initial residual = 0.000141967, Final residual = 1.43238e-10, No Iterations 1
Elapsed = 708 mus
Time = 0.233
 size 233
DILUPBiCGStab:  Solving for Ux, Initial residual = 0.000141958, Final residual = 1.43222e-10, No Iterations 1
DILUPBiCGStab:  Solving for Uy, Initial residual = 0.000141958, Final residual = 1.43222e-10, No Iterations 1
Elapsed = 731 mus
Time = 0.234
 size 234
DILUPBiCGStab:  Solving for Ux, Initial residual = 0.00014195, Final residual = 1.43205e-10, No Iterations 1
DILUPBiCGStab:  Solving for Uy, Initial residual = 0.00014195, Final residual = 1.43205e-10, No Iterations 1
Elapsed = 704 mus
Time = 0.235
 size 235
DILUPBiCGStab:  Solving for Ux, Initial residual = 0.000141944, Final residual = 1.43187e-10, No Iterations 1
DILUPBiCGStab:  Solving for Uy, Initial residual = 0.000141944, Final residual = 1.43187e-10, No Iterations 1
Elapsed = 920 mus
Time = 0.236
 size 236
DILUPBiCGStab:  Solving for Ux, Initial residual = 0.000141938, Final residual = 1.43169e-10, No Iterations 1
DILUPBiCGStab:  Solving for Uy, Initial residual = 0.000141938, Final residual = 1.43169e-10, No Iterations 1
Elapsed = 714 mus
Time = 0.237
 size 237
DILUPBiCGStab:  Solving for Ux, Initial residual = 0.000141931, Final residual = 1.4315e-10, No Iterations 1
DILUPBiCGStab:  Solving for Uy, Initial residual = 0.000141931, Final residual = 1.4315e-10, No Iterations 1
Elapsed = 735 mus
Time = 0.238
 size 238
DILUPBiCGStab:  Solving for Ux, Initial residual = 0.000141924, Final residual = 1.4313e-10, No Iterations 1
DILUPBiCGStab:  Solving for Uy, Initial residual = 0.000141924, Final residual = 1.4313e-10, No Iterations 1
Elapsed = 712 mus
Time = 0.239
 size 239
DILUPBiCGStab:  Solving for Ux, Initial residual = 0.000141917, Final residual = 1.43115e-10, No Iterations 1
DILUPBiCGStab:  Solving for Uy, Initial residual = 0.000141917, Final residual = 1.43115e-10, No Iterations 1
Elapsed = 734 mus
Time = 0.24
 size 240
DILUPBiCGStab:  Solving for Ux, Initial residual = 0.000141911, Final residual = 1.431e-10, No Iterations 1
DILUPBiCGStab:  Solving for Uy, Initial residual = 0.000141911, Final residual = 1.431e-10, No Iterations 1
Elapsed = 706 mus
 # DEBUG burgers.C, line 196 # 10 241
Time = 0.241
 size 241
DILUPBiCGStab:  Solving for Ux, Initial residual = 0.000141903, Final residual = 1.43084e-10, No Iterations 1
DILUPBiCGStab:  Solving for Uy, Initial residual = 0.000141903, Final residual = 1.43084e-10, No Iterations 1
Elapsed = 778 mus
Time = 0.242
 size 242
DILUPBiCGStab:  Solving for Ux, Initial residual = 0.000141896, Final residual = 1.43071e-10, No Iterations 1
DILUPBiCGStab:  Solving for Uy, Initial residual = 0.000141896, Final residual = 1.43071e-10, No Iterations 1
Elapsed = 712 mus
Time = 0.243
 size 243
DILUPBiCGStab:  Solving for Ux, Initial residual = 0.000141888, Final residual = 1.43058e-10, No Iterations 1
DILUPBiCGStab:  Solving for Uy, Initial residual = 0.000141888, Final residual = 1.43058e-10, No Iterations 1
Elapsed = 723 mus
Time = 0.244
 size 244
DILUPBiCGStab:  Solving for Ux, Initial residual = 0.000141881, Final residual = 1.43045e-10, No Iterations 1
DILUPBiCGStab:  Solving for Uy, Initial residual = 0.000141881, Final residual = 1.43045e-10, No Iterations 1
Elapsed = 721 mus
Time = 0.245
 size 245
DILUPBiCGStab:  Solving for Ux, Initial residual = 0.000141873, Final residual = 1.4303e-10, No Iterations 1
DILUPBiCGStab:  Solving for Uy, Initial residual = 0.000141873, Final residual = 1.4303e-10, No Iterations 1
Elapsed = 756 mus
Time = 0.246
 size 246
DILUPBiCGStab:  Solving for Ux, Initial residual = 0.000141864, Final residual = 1.43016e-10, No Iterations 1
DILUPBiCGStab:  Solving for Uy, Initial residual = 0.000141864, Final residual = 1.43016e-10, No Iterations 1
Elapsed = 719 mus
Time = 0.247
 size 247
DILUPBiCGStab:  Solving for Ux, Initial residual = 0.000141856, Final residual = 1.43e-10, No Iterations 1
DILUPBiCGStab:  Solving for Uy, Initial residual = 0.000141856, Final residual = 1.43e-10, No Iterations 1
Elapsed = 734 mus
Time = 0.248
 size 248
DILUPBiCGStab:  Solving for Ux, Initial residual = 0.000141847, Final residual = 1.42984e-10, No Iterations 1
DILUPBiCGStab:  Solving for Uy, Initial residual = 0.000141847, Final residual = 1.42984e-10, No Iterations 1
Elapsed = 722 mus
Time = 0.249
 size 249
DILUPBiCGStab:  Solving for Ux, Initial residual = 0.000141838, Final residual = 1.42968e-10, No Iterations 1
DILUPBiCGStab:  Solving for Uy, Initial residual = 0.000141838, Final residual = 1.42968e-10, No Iterations 1
Elapsed = 728 mus
Time = 0.25
 size 250
DILUPBiCGStab:  Solving for Ux, Initial residual = 0.000141829, Final residual = 1.42951e-10, No Iterations 1
DILUPBiCGStab:  Solving for Uy, Initial residual = 0.000141829, Final residual = 1.42951e-10, No Iterations 1
Elapsed = 710 mus
 # DEBUG burgers.C, line 196 # 10 251
Time = 0.251
 size 251
DILUPBiCGStab:  Solving for Ux, Initial residual = 0.000141819, Final residual = 1.42933e-10, No Iterations 1
DILUPBiCGStab:  Solving for Uy, Initial residual = 0.000141819, Final residual = 1.42933e-10, No Iterations 1
Elapsed = 765 mus
Time = 0.252
 size 252
DILUPBiCGStab:  Solving for Ux, Initial residual = 0.00014181, Final residual = 1.42915e-10, No Iterations 1
DILUPBiCGStab:  Solving for Uy, Initial residual = 0.00014181, Final residual = 1.42915e-10, No Iterations 1
Elapsed = 691 mus
Time = 0.253
 size 253
DILUPBiCGStab:  Solving for Ux, Initial residual = 0.0001418, Final residual = 1.42896e-10, No Iterations 1
DILUPBiCGStab:  Solving for Uy, Initial residual = 0.0001418, Final residual = 1.42896e-10, No Iterations 1
Elapsed = 726 mus
Time = 0.254
 size 254
DILUPBiCGStab:  Solving for Ux, Initial residual = 0.00014179, Final residual = 1.42877e-10, No Iterations 1
DILUPBiCGStab:  Solving for Uy, Initial residual = 0.00014179, Final residual = 1.42877e-10, No Iterations 1
Elapsed = 718 mus
Time = 0.255
 size 255
DILUPBiCGStab:  Solving for Ux, Initial residual = 0.000141779, Final residual = 1.42857e-10, No Iterations 1
DILUPBiCGStab:  Solving for Uy, Initial residual = 0.000141779, Final residual = 1.42857e-10, No Iterations 1
Elapsed = 740 mus
Time = 0.256
 size 256
DILUPBiCGStab:  Solving for Ux, Initial residual = 0.000141769, Final residual = 1.42836e-10, No Iterations 1
DILUPBiCGStab:  Solving for Uy, Initial residual = 0.000141769, Final residual = 1.42836e-10, No Iterations 1
Elapsed = 724 mus
Time = 0.257
 size 257
DILUPBiCGStab:  Solving for Ux, Initial residual = 0.000141758, Final residual = 1.42815e-10, No Iterations 1
DILUPBiCGStab:  Solving for Uy, Initial residual = 0.000141758, Final residual = 1.42815e-10, No Iterations 1
Elapsed = 752 mus
Time = 0.258
 size 258
DILUPBiCGStab:  Solving for Ux, Initial residual = 0.000141747, Final residual = 1.42793e-10, No Iterations 1
DILUPBiCGStab:  Solving for Uy, Initial residual = 0.000141747, Final residual = 1.42793e-10, No Iterations 1
Elapsed = 724 mus
Time = 0.259
 size 259
DILUPBiCGStab:  Solving for Ux, Initial residual = 0.000141735, Final residual = 1.42771e-10, No Iterations 1
DILUPBiCGStab:  Solving for Uy, Initial residual = 0.000141735, Final residual = 1.42771e-10, No Iterations 1
Elapsed = 733 mus
Time = 0.26
 size 260
DILUPBiCGStab:  Solving for Ux, Initial residual = 0.000141726, Final residual = 1.42751e-10, No Iterations 1
DILUPBiCGStab:  Solving for Uy, Initial residual = 0.000141726, Final residual = 1.42751e-10, No Iterations 1
Elapsed = 722 mus
 # DEBUG burgers.C, line 196 # 10 261
Time = 0.261
 size 261
DILUPBiCGStab:  Solving for Ux, Initial residual = 0.000141717, Final residual = 1.42731e-10, No Iterations 1
DILUPBiCGStab:  Solving for Uy, Initial residual = 0.000141717, Final residual = 1.42731e-10, No Iterations 1
Elapsed = 777 mus
Time = 0.262
 size 262
DILUPBiCGStab:  Solving for Ux, Initial residual = 0.000141709, Final residual = 1.42711e-10, No Iterations 1
DILUPBiCGStab:  Solving for Uy, Initial residual = 0.000141709, Final residual = 1.42711e-10, No Iterations 1
Elapsed = 712 mus
Time = 0.263
 size 263
DILUPBiCGStab:  Solving for Ux, Initial residual = 0.0001417, Final residual = 1.4269e-10, No Iterations 1
DILUPBiCGStab:  Solving for Uy, Initial residual = 0.0001417, Final residual = 1.4269e-10, No Iterations 1
Elapsed = 775 mus
Time = 0.264
 size 264
DILUPBiCGStab:  Solving for Ux, Initial residual = 0.000141692, Final residual = 1.42668e-10, No Iterations 1
DILUPBiCGStab:  Solving for Uy, Initial residual = 0.000141692, Final residual = 1.42668e-10, No Iterations 1
Elapsed = 724 mus
Time = 0.265
 size 265
DILUPBiCGStab:  Solving for Ux, Initial residual = 0.000141683, Final residual = 1.42646e-10, No Iterations 1
DILUPBiCGStab:  Solving for Uy, Initial residual = 0.000141683, Final residual = 1.42646e-10, No Iterations 1
Elapsed = 759 mus
Time = 0.266
 size 266
DILUPBiCGStab:  Solving for Ux, Initial residual = 0.000141674, Final residual = 1.42625e-10, No Iterations 1
DILUPBiCGStab:  Solving for Uy, Initial residual = 0.000141674, Final residual = 1.42625e-10, No Iterations 1
Elapsed = 722 mus
Time = 0.267
 size 267
DILUPBiCGStab:  Solving for Ux, Initial residual = 0.000141664, Final residual = 1.42602e-10, No Iterations 1
DILUPBiCGStab:  Solving for Uy, Initial residual = 0.000141664, Final residual = 1.42602e-10, No Iterations 1
Elapsed = 753 mus
Time = 0.268
 size 268
DILUPBiCGStab:  Solving for Ux, Initial residual = 0.000141655, Final residual = 1.42582e-10, No Iterations 1
DILUPBiCGStab:  Solving for Uy, Initial residual = 0.000141655, Final residual = 1.42582e-10, No Iterations 1
Elapsed = 733 mus
Time = 0.269
 size 269
DILUPBiCGStab:  Solving for Ux, Initial residual = 0.000141645, Final residual = 1.42564e-10, No Iterations 1
DILUPBiCGStab:  Solving for Uy, Initial residual = 0.000141645, Final residual = 1.42564e-10, No Iterations 1
Elapsed = 734 mus
Time = 0.27
 size 270
DILUPBiCGStab:  Solving for Ux, Initial residual = 0.000141635, Final residual = 1.42545e-10, No Iterations 1
DILUPBiCGStab:  Solving for Uy, Initial residual = 0.000141635, Final residual = 1.42545e-10, No Iterations 1
Elapsed = 711 mus
 # DEBUG burgers.C, line 196 # 10 271
Time = 0.271
 size 271
DILUPBiCGStab:  Solving for Ux, Initial residual = 0.000141624, Final residual = 1.42526e-10, No Iterations 1
DILUPBiCGStab:  Solving for Uy, Initial residual = 0.000141624, Final residual = 1.42526e-10, No Iterations 1
Elapsed = 771 mus
Time = 0.272
 size 272
DILUPBiCGStab:  Solving for Ux, Initial residual = 0.000141614, Final residual = 1.42507e-10, No Iterations 1
DILUPBiCGStab:  Solving for Uy, Initial residual = 0.000141614, Final residual = 1.42507e-10, No Iterations 1
Elapsed = 711 mus
Time = 0.273
 size 273
DILUPBiCGStab:  Solving for Ux, Initial residual = 0.000141603, Final residual = 1.42486e-10, No Iterations 1
DILUPBiCGStab:  Solving for Uy, Initial residual = 0.000141603, Final residual = 1.42486e-10, No Iterations 1
Elapsed = 723 mus
Time = 0.274
 size 274
DILUPBiCGStab:  Solving for Ux, Initial residual = 0.000141592, Final residual = 1.42465e-10, No Iterations 1
DILUPBiCGStab:  Solving for Uy, Initial residual = 0.000141592, Final residual = 1.42465e-10, No Iterations 1
Elapsed = 715 mus
Time = 0.275
 size 275
DILUPBiCGStab:  Solving for Ux, Initial residual = 0.000141581, Final residual = 1.42444e-10, No Iterations 1
DILUPBiCGStab:  Solving for Uy, Initial residual = 0.000141581, Final residual = 1.42444e-10, No Iterations 1
Elapsed = 809 mus
Time = 0.276
 size 276
DILUPBiCGStab:  Solving for Ux, Initial residual = 0.00014157, Final residual = 1.42422e-10, No Iterations 1
DILUPBiCGStab:  Solving for Uy, Initial residual = 0.00014157, Final residual = 1.42422e-10, No Iterations 1
Elapsed = 735 mus
Time = 0.277
 size 277
DILUPBiCGStab:  Solving for Ux, Initial residual = 0.000141558, Final residual = 1.424e-10, No Iterations 1
DILUPBiCGStab:  Solving for Uy, Initial residual = 0.000141558, Final residual = 1.424e-10, No Iterations 1
Elapsed = 752 mus
Time = 0.278
 size 278
DILUPBiCGStab:  Solving for Ux, Initial residual = 0.000141548, Final residual = 1.42377e-10, No Iterations 1
DILUPBiCGStab:  Solving for Uy, Initial residual = 0.000141548, Final residual = 1.42377e-10, No Iterations 1
Elapsed = 737 mus
Time = 0.279
 size 279
DILUPBiCGStab:  Solving for Ux, Initial residual = 0.000141538, Final residual = 1.42354e-10, No Iterations 1
DILUPBiCGStab:  Solving for Uy, Initial residual = 0.000141538, Final residual = 1.42354e-10, No Iterations 1
Elapsed = 754 mus
Time = 0.28
 size 280
DILUPBiCGStab:  Solving for Ux, Initial residual = 0.000141527, Final residual = 1.42332e-10, No Iterations 1
DILUPBiCGStab:  Solving for Uy, Initial residual = 0.000141527, Final residual = 1.42332e-10, No Iterations 1
Elapsed = 709 mus
 # DEBUG burgers.C, line 196 # 10 281
Time = 0.281
 size 281
DILUPBiCGStab:  Solving for Ux, Initial residual = 0.000141516, Final residual = 1.42308e-10, No Iterations 1
DILUPBiCGStab:  Solving for Uy, Initial residual = 0.000141516, Final residual = 1.42308e-10, No Iterations 1
Elapsed = 769 mus
Time = 0.282
 size 282
DILUPBiCGStab:  Solving for Ux, Initial residual = 0.000141505, Final residual = 1.42284e-10, No Iterations 1
DILUPBiCGStab:  Solving for Uy, Initial residual = 0.000141505, Final residual = 1.42284e-10, No Iterations 1
Elapsed = 718 mus
Time = 0.283
 size 283
DILUPBiCGStab:  Solving for Ux, Initial residual = 0.000141494, Final residual = 1.4226e-10, No Iterations 1
DILUPBiCGStab:  Solving for Uy, Initial residual = 0.000141494, Final residual = 1.4226e-10, No Iterations 1
Elapsed = 762 mus
Time = 0.284
 size 284
DILUPBiCGStab:  Solving for Ux, Initial residual = 0.000141483, Final residual = 1.42235e-10, No Iterations 1
DILUPBiCGStab:  Solving for Uy, Initial residual = 0.000141483, Final residual = 1.42235e-10, No Iterations 1
Elapsed = 715 mus
Time = 0.285
 size 285
DILUPBiCGStab:  Solving for Ux, Initial residual = 0.000141473, Final residual = 1.42209e-10, No Iterations 1
DILUPBiCGStab:  Solving for Uy, Initial residual = 0.000141473, Final residual = 1.42209e-10, No Iterations 1
Elapsed = 731 mus
Time = 0.286
 size 286
DILUPBiCGStab:  Solving for Ux, Initial residual = 0.000141463, Final residual = 1.42183e-10, No Iterations 1
DILUPBiCGStab:  Solving for Uy, Initial residual = 0.000141463, Final residual = 1.42183e-10, No Iterations 1
Elapsed = 715 mus
Time = 0.287
 size 287
DILUPBiCGStab:  Solving for Ux, Initial residual = 0.000141452, Final residual = 1.42158e-10, No Iterations 1
DILUPBiCGStab:  Solving for Uy, Initial residual = 0.000141452, Final residual = 1.42158e-10, No Iterations 1
Elapsed = 731 mus
Time = 0.288
 size 288
DILUPBiCGStab:  Solving for Ux, Initial residual = 0.000141441, Final residual = 1.42133e-10, No Iterations 1
DILUPBiCGStab:  Solving for Uy, Initial residual = 0.000141441, Final residual = 1.42133e-10, No Iterations 1
Elapsed = 740 mus
Time = 0.289
 size 289
DILUPBiCGStab:  Solving for Ux, Initial residual = 0.000141433, Final residual = 1.42107e-10, No Iterations 1
DILUPBiCGStab:  Solving for Uy, Initial residual = 0.000141433, Final residual = 1.42107e-10, No Iterations 1
Elapsed = 738 mus
Time = 0.29
 size 290
DILUPBiCGStab:  Solving for Ux, Initial residual = 0.000141426, Final residual = 1.42081e-10, No Iterations 1
DILUPBiCGStab:  Solving for Uy, Initial residual = 0.000141426, Final residual = 1.42081e-10, No Iterations 1
Elapsed = 715 mus
 # DEBUG burgers.C, line 196 # 10 291
Time = 0.291
 size 291
DILUPBiCGStab:  Solving for Ux, Initial residual = 0.000141418, Final residual = 1.42054e-10, No Iterations 1
DILUPBiCGStab:  Solving for Uy, Initial residual = 0.000141418, Final residual = 1.42054e-10, No Iterations 1
Elapsed = 772 mus
Time = 0.292
 size 292
DILUPBiCGStab:  Solving for Ux, Initial residual = 0.00014141, Final residual = 1.42031e-10, No Iterations 1
DILUPBiCGStab:  Solving for Uy, Initial residual = 0.00014141, Final residual = 1.42031e-10, No Iterations 1
Elapsed = 711 mus
Time = 0.293
 size 293
DILUPBiCGStab:  Solving for Ux, Initial residual = 0.000141401, Final residual = 1.42009e-10, No Iterations 1
DILUPBiCGStab:  Solving for Uy, Initial residual = 0.000141401, Final residual = 1.42009e-10, No Iterations 1
Elapsed = 745 mus
Time = 0.294
 size 294
DILUPBiCGStab:  Solving for Ux, Initial residual = 0.000141393, Final residual = 1.41988e-10, No Iterations 1
DILUPBiCGStab:  Solving for Uy, Initial residual = 0.000141393, Final residual = 1.41988e-10, No Iterations 1
Elapsed = 720 mus
Time = 0.295
 size 295
DILUPBiCGStab:  Solving for Ux, Initial residual = 0.000141384, Final residual = 1.41967e-10, No Iterations 1
DILUPBiCGStab:  Solving for Uy, Initial residual = 0.000141384, Final residual = 1.41967e-10, No Iterations 1
Elapsed = 718 mus
Time = 0.296
 size 296
DILUPBiCGStab:  Solving for Ux, Initial residual = 0.000141375, Final residual = 1.41947e-10, No Iterations 1
[...]
 # DEBUG burgers.C, line 267 # 328
 # DEBUG burgers.C, line 267 # 387
 # DEBUG burgers.C, line 262 # 13
 # DEBUG burgers.C, line 267 # 330
 # DEBUG burgers.C, line 267 # 389
 # DEBUG burgers.C, line 267 # 390
 # DEBUG burgers.C, line 267 # 391
 # DEBUG burgers.C, line 267 # 448
 # DEBUG burgers.C, line 267 # 449
 # DEBUG burgers.C, line 267 # 450
 # DEBUG burgers.C, line 267 # 451
 # DEBUG burgers.C, line 267 # 452
 # DEBUG burgers.C, line 267 # 509
 # DEBUG burgers.C, line 267 # 510
 # DEBUG burgers.C, line 267 # 511
 # DEBUG burgers.C, line 267 # 570
 # DEBUG burgers.C, line 262 # 13
 # DEBUG burgers.C, line 267 # 1828
 # DEBUG burgers.C, line 267 # 1887
 # DEBUG burgers.C, line 267 # 1888
 # DEBUG burgers.C, line 267 # 1889
 # DEBUG burgers.C, line 267 # 1946
 # DEBUG burgers.C, line 267 # 1947
 # DEBUG burgers.C, line 267 # 1948
 # DEBUG burgers.C, line 267 # 1949
 # DEBUG burgers.C, line 267 # 1950
 # DEBUG burgers.C, line 267 # 2007
 # DEBUG burgers.C, line 267 # 2008
 # DEBUG burgers.C, line 267 # 2009
 # DEBUG burgers.C, line 267 # 2068
 # DEBUG burgers.C, line 262 # 13
 # DEBUG burgers.C, line 267 # 813
 # DEBUG burgers.C, line 267 # 872
 # DEBUG burgers.C, line 267 # 873
 # DEBUG burgers.C, line 267 # 874
 # DEBUG burgers.C, line 267 # 931
 # DEBUG burgers.C, line 267 # 932
 # DEBUG burgers.C, line 267 # 933
 # DEBUG burgers.C, line 267 # 934
 # DEBUG burgers.C, line 267 # 935
 # DEBUG burgers.C, line 267 # 992
 # DEBUG burgers.C, line 267 # 993
 # DEBUG burgers.C, line 267 # 994
 # DEBUG burgers.C, line 267 # 1053
 # DEBUG burgers.C, line 262 # 13
 # DEBUG burgers.C, line 267 # 866
 # DEBUG burgers.C, line 267 # 925
 # DEBUG burgers.C, line 267 # 926
 # DEBUG burgers.C, line 267 # 927
 # DEBUG burgers.C, line 267 # 984
 # DEBUG burgers.C, line 267 # 985
 # DEBUG burgers.C, line 267 # 986
 # DEBUG burgers.C, line 267 # 987
 # DEBUG burgers.C, line 267 # 988
 # DEBUG burgers.C, line 267 # 1045
 # DEBUG burgers.C, line 267 # 1046
 # DEBUG burgers.C, line 267 # 1047
 # DEBUG burgers.C, line 267 # 1106
 # DEBUG burgers.C, line 262 # 13
 # DEBUG burgers.C, line 267 # 1404
 # DEBUG burgers.C, line 267 # 1463
 # DEBUG burgers.C, line 267 # 1464
 # DEBUG burgers.C, line 267 # 1465
 # DEBUG burgers.C, line 267 # 1522
 # DEBUG burgers.C, line 267 # 1523
 # DEBUG burgers.C, line 267 # 1524
 # DEBUG burgers.C, line 267 # 1525
 # DEBUG burgers.C, line 267 # 1526
 # DEBUG burgers.C, line 267 # 1583
 # DEBUG burgers.C, line 267 # 1584
 # DEBUG burgers.C, line 267 # 1585
 # DEBUG burgers.C, line 267 # 1644
 # DEBUG burgers.C, line 262 # 13
 # DEBUG burgers.C, line 267 # 1645
 # DEBUG burgers.C, line 267 # 1704
 # DEBUG burgers.C, line 267 # 1705
 # DEBUG burgers.C, line 267 # 1706
 # DEBUG burgers.C, line 267 # 1763
 # DEBUG burgers.C, line 267 # 1764
 # DEBUG burgers.C, line 267 # 1765
 # DEBUG burgers.C, line 267 # 1766
 # DEBUG burgers.C, line 267 # 1767
 # DEBUG burgers.C, line 267 # 1824
 # DEBUG burgers.C, line 267 # 1825
 # DEBUG burgers.C, line 267 # 1826
 # DEBUG burgers.C, line 267 # 1885
 # DEBUG burgers.C, line 262 # 13
 # DEBUG burgers.C, line 267 # 1947
 # DEBUG burgers.C, line 267 # 2006
 # DEBUG burgers.C, line 267 # 2007
 # DEBUG burgers.C, line 267 # 2008
 # DEBUG burgers.C, line 267 # 2065
 # DEBUG burgers.C, line 267 # 2066
 # DEBUG burgers.C, line 267 # 2067
 # DEBUG burgers.C, line 267 # 2068
 # DEBUG burgers.C, line 267 # 2069
 # DEBUG burgers.C, line 267 # 2126
 # DEBUG burgers.C, line 267 # 2127
 # DEBUG burgers.C, line 267 # 2128
 # DEBUG burgers.C, line 267 # 2187
 # DEBUG burgers.C, line 262 # 13
 # DEBUG burgers.C, line 267 # 1824
 # DEBUG burgers.C, line 267 # 1883
 # DEBUG burgers.C, line 267 # 1884
 # DEBUG burgers.C, line 267 # 1885
 # DEBUG burgers.C, line 267 # 1942
 # DEBUG burgers.C, line 267 # 1943
 # DEBUG burgers.C, line 267 # 1944
 # DEBUG burgers.C, line 267 # 1945
 # DEBUG burgers.C, line 267 # 1946
 # DEBUG burgers.C, line 267 # 2003
 # DEBUG burgers.C, line 267 # 2004
 # DEBUG burgers.C, line 267 # 2005
 # DEBUG burgers.C, line 267 # 2064
 # DEBUG burgers.C, line 262 # 13
 # DEBUG burgers.C, line 267 # 1745
 # DEBUG burgers.C, line 267 # 1804
 # DEBUG burgers.C, line 267 # 1805
 # DEBUG burgers.C, line 267 # 1806
 # DEBUG burgers.C, line 267 # 1863
 # DEBUG burgers.C, line 267 # 1864
 # DEBUG burgers.C, line 267 # 1865
 # DEBUG burgers.C, line 267 # 1866
 # DEBUG burgers.C, line 267 # 1867
 # DEBUG burgers.C, line 267 # 1924
 # DEBUG burgers.C, line 267 # 1925
 # DEBUG burgers.C, line 267 # 1926
 # DEBUG burgers.C, line 267 # 1985
 # DEBUG burgers.C, line 262 # 13
 # DEBUG burgers.C, line 267 # 1348
 # DEBUG burgers.C, line 267 # 1407
 # DEBUG burgers.C, line 267 # 1408
 # DEBUG burgers.C, line 267 # 1409
 # DEBUG burgers.C, line 267 # 1466
 # DEBUG burgers.C, line 267 # 1467
 # DEBUG burgers.C, line 267 # 1468
 # DEBUG burgers.C, line 267 # 1469
 # DEBUG burgers.C, line 267 # 1470
 # DEBUG burgers.C, line 267 # 1527
 # DEBUG burgers.C, line 267 # 1528
 # DEBUG burgers.C, line 267 # 1529
 # DEBUG burgers.C, line 267 # 1588
 # DEBUG burgers.C, line 262 # 13
 # DEBUG burgers.C, line 267 # 1228
 # DEBUG burgers.C, line 267 # 1287
 # DEBUG burgers.C, line 267 # 1288
 # DEBUG burgers.C, line 267 # 1289
 # DEBUG burgers.C, line 267 # 1346
 # DEBUG burgers.C, line 267 # 1347
 # DEBUG burgers.C, line 267 # 1348
 # DEBUG burgers.C, line 267 # 1349
 # DEBUG burgers.C, line 267 # 1350
 # DEBUG burgers.C, line 267 # 1407
 # DEBUG burgers.C, line 267 # 1408
 # DEBUG burgers.C, line 267 # 1409
 # DEBUG burgers.C, line 267 # 1468
 # DEBUG burgers.C, line 262 # 13
 # DEBUG burgers.C, line 267 # 1761
 # DEBUG burgers.C, line 267 # 1820
 # DEBUG burgers.C, line 267 # 1821
 # DEBUG burgers.C, line 267 # 1822
 # DEBUG burgers.C, line 267 # 1879
 # DEBUG burgers.C, line 267 # 1880
 # DEBUG burgers.C, line 267 # 1881
 # DEBUG burgers.C, line 267 # 1882
 # DEBUG burgers.C, line 267 # 1883
 # DEBUG burgers.C, line 267 # 1940
 # DEBUG burgers.C, line 267 # 1941
 # DEBUG burgers.C, line 267 # 1942
 # DEBUG burgers.C, line 267 # 2001
 # DEBUG burgers.C, line 262 # 13
 # DEBUG burgers.C, line 267 # 1295
 # DEBUG burgers.C, line 267 # 1354
 # DEBUG burgers.C, line 267 # 1355
 # DEBUG burgers.C, line 267 # 1356
 # DEBUG burgers.C, line 267 # 1413
 # DEBUG burgers.C, line 267 # 1414
 # DEBUG burgers.C, line 267 # 1415
 # DEBUG burgers.C, line 267 # 1416
 # DEBUG burgers.C, line 267 # 1417
 # DEBUG burgers.C, line 267 # 1474
 # DEBUG burgers.C, line 267 # 1475
 # DEBUG burgers.C, line 267 # 1476
 # DEBUG burgers.C, line 267 # 1535
 # DEBUG burgers.C, line 262 # 13
 # DEBUG burgers.C, line 267 # 1353
 # DEBUG burgers.C, line 267 # 1412
 # DEBUG burgers.C, line 267 # 1413
 # DEBUG burgers.C, line 267 # 1414
 # DEBUG burgers.C, line 267 # 1471
 # DEBUG burgers.C, line 267 # 1472
 # DEBUG burgers.C, line 267 # 1473
 # DEBUG burgers.C, line 267 # 1474
 # DEBUG burgers.C, line 267 # 1475
 # DEBUG burgers.C, line 267 # 1532
 # DEBUG burgers.C, line 267 # 1533
 # DEBUG burgers.C, line 267 # 1534
 # DEBUG burgers.C, line 267 # 1593
 # DEBUG burgers.C, line 262 # 13
 # DEBUG burgers.C, line 267 # 1593
 # DEBUG burgers.C, line 267 # 1652
 # DEBUG burgers.C, line 267 # 1653
 # DEBUG burgers.C, line 267 # 1654
 # DEBUG burgers.C, line 267 # 1711
 # DEBUG burgers.C, line 267 # 1712
 # DEBUG burgers.C, line 267 # 1713
 # DEBUG burgers.C, line 267 # 1714
 # DEBUG burgers.C, line 267 # 1715
 # DEBUG burgers.C, line 267 # 1772
 # DEBUG burgers.C, line 267 # 1773
 # DEBUG burgers.C, line 267 # 1774
 # DEBUG burgers.C, line 267 # 1833
 # DEBUG burgers.C, line 262 # 13
 # DEBUG burgers.C, line 267 # 1773
 # DEBUG burgers.C, line 267 # 1832
 # DEBUG burgers.C, line 267 # 1833
 # DEBUG burgers.C, line 267 # 1834
 # DEBUG burgers.C, line 267 # 1891
 # DEBUG burgers.C, line 267 # 1892
 # DEBUG burgers.C, line 267 # 1893
 # DEBUG burgers.C, line 267 # 1894
 # DEBUG burgers.C, line 267 # 1895
 # DEBUG burgers.C, line 267 # 1952
 # DEBUG burgers.C, line 267 # 1953
 # DEBUG burgers.C, line 267 # 1954
 # DEBUG burgers.C, line 267 # 2013
 # DEBUG burgers.C, line 262 # 13
 # DEBUG burgers.C, line 267 # 1039
 # DEBUG burgers.C, line 267 # 1098
 # DEBUG burgers.C, line 267 # 1099
 # DEBUG burgers.C, line 267 # 1100
 # DEBUG burgers.C, line 267 # 1157
 # DEBUG burgers.C, line 267 # 1158
 # DEBUG burgers.C, line 267 # 1159
 # DEBUG burgers.C, line 267 # 1160
 # DEBUG burgers.C, line 267 # 1161
 # DEBUG burgers.C, line 267 # 1218
 # DEBUG burgers.C, line 267 # 1219
 # DEBUG burgers.C, line 267 # 1220
 # DEBUG burgers.C, line 267 # 1279
 # DEBUG burgers.C, line 262 # 13
 # DEBUG burgers.C, line 267 # 1210
 # DEBUG burgers.C, line 267 # 1269
 # DEBUG burgers.C, line 267 # 1270
 # DEBUG burgers.C, line 267 # 1271
 # DEBUG burgers.C, line 267 # 1328
 # DEBUG burgers.C, line 267 # 1329
 # DEBUG burgers.C, line 267 # 1330
 # DEBUG burgers.C, line 267 # 1331
 # DEBUG burgers.C, line 267 # 1332
 # DEBUG burgers.C, line 267 # 1389
 # DEBUG burgers.C, line 267 # 1390
 # DEBUG burgers.C, line 267 # 1391
 # DEBUG burgers.C, line 267 # 1450
 # DEBUG burgers.C, line 262 # 13
 # DEBUG burgers.C, line 267 # 1644
 # DEBUG burgers.C, line 267 # 1703
 # DEBUG burgers.C, line 267 # 1704
 # DEBUG burgers.C, line 267 # 1705
 # DEBUG burgers.C, line 267 # 1762
 # DEBUG burgers.C, line 267 # 1763
 # DEBUG burgers.C, line 267 # 1764
 # DEBUG burgers.C, line 267 # 1765
 # DEBUG burgers.C, line 267 # 1766
 # DEBUG burgers.C, line 267 # 1823
 # DEBUG burgers.C, line 267 # 1824
 # DEBUG burgers.C, line 267 # 1825
 # DEBUG burgers.C, line 267 # 1884
 # DEBUG burgers.C, line 262 # 12
 # DEBUG burgers.C, line 267 # 841
 # DEBUG burgers.C, line 267 # 900
 # DEBUG burgers.C, line 267 # 901
 # DEBUG burgers.C, line 267 # 902
 # DEBUG burgers.C, line 267 # 960
 # DEBUG burgers.C, line 267 # 961
 # DEBUG burgers.C, line 267 # 962
 # DEBUG burgers.C, line 267 # 963
 # DEBUG burgers.C, line 267 # 1020
 # DEBUG burgers.C, line 267 # 1021
 # DEBUG burgers.C, line 267 # 1022
 # DEBUG burgers.C, line 267 # 1081
 # DEBUG burgers.C, line 262 # 13
 # DEBUG burgers.C, line 267 # 1468
 # DEBUG burgers.C, line 267 # 1527
 # DEBUG burgers.C, line 267 # 1528
 # DEBUG burgers.C, line 267 # 1529
 # DEBUG burgers.C, line 267 # 1586
 # DEBUG burgers.C, line 267 # 1587
 # DEBUG burgers.C, line 267 # 1588
 # DEBUG burgers.C, line 267 # 1589
 # DEBUG burgers.C, line 267 # 1590
 # DEBUG burgers.C, line 267 # 1647
 # DEBUG burgers.C, line 267 # 1648
 # DEBUG burgers.C, line 267 # 1649
 # DEBUG burgers.C, line 267 # 1708
 # DEBUG burgers.C, line 262 # 13
 # DEBUG burgers.C, line 267 # 1825
 # DEBUG burgers.C, line 267 # 1884
 # DEBUG burgers.C, line 267 # 1885
 # DEBUG burgers.C, line 267 # 1886
 # DEBUG burgers.C, line 267 # 1943
 # DEBUG burgers.C, line 267 # 1944
 # DEBUG burgers.C, line 267 # 1945
 # DEBUG burgers.C, line 267 # 1946
 # DEBUG burgers.C, line 267 # 1947
 # DEBUG burgers.C, line 267 # 2004
 # DEBUG burgers.C, line 267 # 2005
 # DEBUG burgers.C, line 267 # 2006
 # DEBUG burgers.C, line 267 # 2065
 # DEBUG burgers.C, line 262 # 13
 # DEBUG burgers.C, line 267 # 572
 # DEBUG burgers.C, line 267 # 631
 # DEBUG burgers.C, line 267 # 632
 # DEBUG burgers.C, line 267 # 633
 # DEBUG burgers.C, line 267 # 690
 # DEBUG burgers.C, line 267 # 691
 # DEBUG burgers.C, line 267 # 692
 # DEBUG burgers.C, line 267 # 693
 # DEBUG burgers.C, line 267 # 694
 # DEBUG burgers.C, line 267 # 751
 # DEBUG burgers.C, line 267 # 752
 # DEBUG burgers.C, line 267 # 753
 # DEBUG burgers.C, line 267 # 812
 # DEBUG burgers.C, line 262 # 13
 # DEBUG burgers.C, line 267 # 272
 # DEBUG burgers.C, line 267 # 331
 # DEBUG burgers.C, line 267 # 332
 # DEBUG burgers.C, line 267 # 333
 # DEBUG burgers.C, line 267 # 390
 # DEBUG burgers.C, line 267 # 391
 # DEBUG burgers.C, line 267 # 392
 # DEBUG burgers.C, line 267 # 393
 # DEBUG burgers.C, line 267 # 394
 # DEBUG burgers.C, line 267 # 451
 # DEBUG burgers.C, line 267 # 452
 # DEBUG burgers.C, line 267 # 453
 # DEBUG burgers.C, line 267 # 512
 # DEBUG burgers.C, line 262 # 13
 # DEBUG burgers.C, line 267 # 1533
 # DEBUG burgers.C, line 267 # 1592
 # DEBUG burgers.C, line 267 # 1593
 # DEBUG burgers.C, line 267 # 1594
 # DEBUG burgers.C, line 267 # 1651
 # DEBUG burgers.C, line 267 # 1652
 # DEBUG burgers.C, line 267 # 1653
 # DEBUG burgers.C, line 267 # 1654
 # DEBUG burgers.C, line 267 # 1655
 # DEBUG burgers.C, line 267 # 1712
 # DEBUG burgers.C, line 267 # 1713
 # DEBUG burgers.C, line 267 # 1714
 # DEBUG burgers.C, line 267 # 1773
 # DEBUG burgers.C, line 262 # 13
 # DEBUG burgers.C, line 267 # 1628
 # DEBUG burgers.C, line 267 # 1687
 # DEBUG burgers.C, line 267 # 1688
 # DEBUG burgers.C, line 267 # 1689
 # DEBUG burgers.C, line 267 # 1746
 # DEBUG burgers.C, line 267 # 1747
 # DEBUG burgers.C, line 267 # 1748
 # DEBUG burgers.C, line 267 # 1749
 # DEBUG burgers.C, line 267 # 1750
 # DEBUG burgers.C, line 267 # 1807
 # DEBUG burgers.C, line 267 # 1808
 # DEBUG burgers.C, line 267 # 1809
 # DEBUG burgers.C, line 267 # 1868
 # DEBUG burgers.C, line 262 # 13
 # DEBUG burgers.C, line 267 # 1408
 # DEBUG burgers.C, line 267 # 1467
 # DEBUG burgers.C, line 267 # 1468
 # DEBUG burgers.C, line 267 # 1469
 # DEBUG burgers.C, line 267 # 1526
 # DEBUG burgers.C, line 267 # 1527
 # DEBUG burgers.C, line 267 # 1528
 # DEBUG burgers.C, line 267 # 1529
 # DEBUG burgers.C, line 267 # 1530
 # DEBUG burgers.C, line 267 # 1587
 # DEBUG burgers.C, line 267 # 1588
 # DEBUG burgers.C, line 267 # 1589
 # DEBUG burgers.C, line 267 # 1648
 # DEBUG burgers.C, line 262 # 13
 # DEBUG burgers.C, line 267 # 551
 # DEBUG burgers.C, line 267 # 610
 # DEBUG burgers.C, line 267 # 611
 # DEBUG burgers.C, line 267 # 612
 # DEBUG burgers.C, line 267 # 669
 # DEBUG burgers.C, line 267 # 670
 # DEBUG burgers.C, line 267 # 671
 # DEBUG burgers.C, line 267 # 672
 # DEBUG burgers.C, line 267 # 673
 # DEBUG burgers.C, line 267 # 730
 # DEBUG burgers.C, line 267 # 731
 # DEBUG burgers.C, line 267 # 732
 # DEBUG burgers.C, line 267 # 791
 # DEBUG burgers.C, line 262 # 13
 # DEBUG burgers.C, line 267 # 1889
 # DEBUG burgers.C, line 267 # 1948
 # DEBUG burgers.C, line 267 # 1949
 # DEBUG burgers.C, line 267 # 1950
 # DEBUG burgers.C, line 267 # 2007
 # DEBUG burgers.C, line 267 # 2008
 # DEBUG burgers.C, line 267 # 2009
 # DEBUG burgers.C, line 267 # 2010
 # DEBUG burgers.C, line 267 # 2011
 # DEBUG burgers.C, line 267 # 2068
 # DEBUG burgers.C, line 267 # 2069
 # DEBUG burgers.C, line 267 # 2070
 # DEBUG burgers.C, line 267 # 2129
 # DEBUG burgers.C, line 262 # 13
 # DEBUG burgers.C, line 267 # 1764
 # DEBUG burgers.C, line 267 # 1823
 # DEBUG burgers.C, line 267 # 1824
 # DEBUG burgers.C, line 267 # 1825
 # DEBUG burgers.C, line 267 # 1882
 # DEBUG burgers.C, line 267 # 1883
 # DEBUG burgers.C, line 267 # 1884
 # DEBUG burgers.C, line 267 # 1885
 # DEBUG burgers.C, line 267 # 1886
 # DEBUG burgers.C, line 267 # 1943
 # DEBUG burgers.C, line 267 # 1944
 # DEBUG burgers.C, line 267 # 1945
 # DEBUG burgers.C, line 267 # 2004
 # DEBUG burgers.C, line 262 # 13
 # DEBUG burgers.C, line 267 # 1578
 # DEBUG burgers.C, line 267 # 1637
 # DEBUG burgers.C, line 267 # 1638
 # DEBUG burgers.C, line 267 # 1639
 # DEBUG burgers.C, line 267 # 1696
 # DEBUG burgers.C, line 267 # 1697
 # DEBUG burgers.C, line 267 # 1698
 # DEBUG burgers.C, line 267 # 1699
 # DEBUG burgers.C, line 267 # 1700
 # DEBUG burgers.C, line 267 # 1757
 # DEBUG burgers.C, line 267 # 1758
 # DEBUG burgers.C, line 267 # 1759
 # DEBUG burgers.C, line 267 # 1818
 # DEBUG burgers.C, line 262 # 13
 # DEBUG burgers.C, line 267 # 1052
 # DEBUG burgers.C, line 267 # 1111
 # DEBUG burgers.C, line 267 # 1112
 # DEBUG burgers.C, line 267 # 1113
 # DEBUG burgers.C, line 267 # 1170
 # DEBUG burgers.C, line 267 # 1171
 # DEBUG burgers.C, line 267 # 1172
 # DEBUG burgers.C, line 267 # 1173
 # DEBUG burgers.C, line 267 # 1174
 # DEBUG burgers.C, line 267 # 1231
 # DEBUG burgers.C, line 267 # 1232
 # DEBUG burgers.C, line 267 # 1233
 # DEBUG burgers.C, line 267 # 1292
 # DEBUG burgers.C, line 262 # 13
 # DEBUG burgers.C, line 267 # 1229
 # DEBUG burgers.C, line 267 # 1288
 # DEBUG burgers.C, line 267 # 1289
 # DEBUG burgers.C, line 267 # 1290
 # DEBUG burgers.C, line 267 # 1347
 # DEBUG burgers.C, line 267 # 1348
 # DEBUG burgers.C, line 267 # 1349
 # DEBUG burgers.C, line 267 # 1350
 # DEBUG burgers.C, line 267 # 1351
 # DEBUG burgers.C, line 267 # 1408
 # DEBUG burgers.C, line 267 # 1409
 # DEBUG burgers.C, line 267 # 1410
 # DEBUG burgers.C, line 267 # 1469
 # DEBUG burgers.C, line 262 # 13
 # DEBUG burgers.C, line 267 # 634
 # DEBUG burgers.C, line 267 # 693
 # DEBUG burgers.C, line 267 # 694
 # DEBUG burgers.C, line 267 # 695
 # DEBUG burgers.C, line 267 # 752
 # DEBUG burgers.C, line 267 # 753
 # DEBUG burgers.C, line 267 # 754
 # DEBUG burgers.C, line 267 # 755
 # DEBUG burgers.C, line 267 # 756
 # DEBUG burgers.C, line 267 # 813
 # DEBUG burgers.C, line 267 # 814
 # DEBUG burgers.C, line 267 # 815
 # DEBUG burgers.C, line 267 # 874
 # DEBUG burgers.C, line 262 # 13
 # DEBUG burgers.C, line 267 # 1683
 # DEBUG burgers.C, line 267 # 1742
 # DEBUG burgers.C, line 267 # 1743
 # DEBUG burgers.C, line 267 # 1744
 # DEBUG burgers.C, line 267 # 1801
 # DEBUG burgers.C, line 267 # 1802
 # DEBUG burgers.C, line 267 # 1803
 # DEBUG burgers.C, line 267 # 1804
 # DEBUG burgers.C, line 267 # 1805
 # DEBUG burgers.C, line 267 # 1862
 # DEBUG burgers.C, line 267 # 1863
 # DEBUG burgers.C, line 267 # 1864
 # DEBUG burgers.C, line 267 # 1923
 # DEBUG burgers.C, line 262 # 13
 # DEBUG burgers.C, line 267 # 320
 # DEBUG burgers.C, line 267 # 379
 # DEBUG burgers.C, line 267 # 380
 # DEBUG burgers.C, line 267 # 381
 # DEBUG burgers.C, line 267 # 438
 # DEBUG burgers.C, line 267 # 439
 # DEBUG burgers.C, line 267 # 440
 # DEBUG burgers.C, line 267 # 441
 # DEBUG burgers.C, line 267 # 442
 # DEBUG burgers.C, line 267 # 499
 # DEBUG burgers.C, line 267 # 500
 # DEBUG burgers.C, line 267 # 501
 # DEBUG burgers.C, line 267 # 560
 # DEBUG burgers.C, line 262 # 13
 # DEBUG burgers.C, line 267 # 929
 # DEBUG burgers.C, line 267 # 988
 # DEBUG burgers.C, line 267 # 989
 # DEBUG burgers.C, line 267 # 990
 # DEBUG burgers.C, line 267 # 1047
 # DEBUG burgers.C, line 267 # 1048
 # DEBUG burgers.C, line 267 # 1049
 # DEBUG burgers.C, line 267 # 1050
 # DEBUG burgers.C, line 267 # 1051
 # DEBUG burgers.C, line 267 # 1108
 # DEBUG burgers.C, line 267 # 1109
 # DEBUG burgers.C, line 267 # 1110
 # DEBUG burgers.C, line 267 # 1169
DEIM finished, n_indices is: 2659
Non duplicated magic points: 137 / 200
MP vector:  1220
 1648
 1830
 3599
  793
 1769
 1585
 1831
 1404
 1768
 1831
 1773
 1587
 1052
  549
 1171
 1828
 2003
 1647
 1050
 1892
 1342
 1945
 1708
 2060
 1952
  929
 1465
 1530
 1772
   15
 1888
 1037
 1823
 1947
 1531
 1773
 1821
 1228
 1828
 1349
 1586
 1767
 1886
 1872
 1825
 1158
 2007
 1636
 1883
 1764
 1650
 1948
 1525
 1771
  812
 1412
 1952
 1570
 1702
 1766
 1206
 1651
 2124
 2013
  988
 1640
 1805
 1824
 1594
  915
 1516
 1713
 1747
 1765
  513
 1281
 2004
 1881
 1810
 1468
 1774
  933
 1688
 1330
  451
 1945
 1626
 2006
 1819
 1950
 1471
 1758
 2000
 1929
 1706
 1762
 1714
 1403
 1875
 1220
 1647
 1769
  793
-1889
 1525
-1891
 1708
-1829
 1403
 1892
 1768
-1873
 1586
-1890
-1170
 1037
-1999
 1952
 1648
-1352
-1711
 1883
  549
-2063
 1772
 1824
-1646
-1887
 -900
-1464
-1833
-1350
 1228
 -749
-1593
-1814
 1767
-1710
 -872
-1341
-1760
-1832
 1886
-2056
 1830
-1827
 1530
 1585
-1592
 -868
-1868
-1763
-1107
-1953
  915
 -746
-1590
 1531
 1947
 1766
-1111
 -267
 -450
 1948
  933
 -986
-1524
 1765
-2067
-1944
-1865
 1468
-1348
 1881
-1415
-1473
 1713
-1893
-1159
 1330
 1764
 -961
-1588
 1945
 -692
 -392
-1653
-1748
-1528
 -671
-2009
-1884
-1698
-1172
 1349
 -754
-1803
 -440
-1049
vec ind B: 1
1
1
1
0
1
0
1
0
1
1
1
0
1
0
0
1
0
1
1
0
0
1
1
0
1
1
0
0
0
0
0
0
1
0
0
0
1
0
0
0
0
0
1
0
1
0
1
1
0
0
0
0
0
0
1
0
0
1
1
1
0
0
0
1
1
0
0
1
0
0
0
1
0
1
0
0
1
0
0
1
1
0
0
1
0
0
0
0
0
0
0
0
0
0
1
0
0
0
0
